NCGC00015256
     RDKit          2D

 22 23  0  0  0  0  0  0  0  0999 V2000
   -6.0815    0.0098    0.0000 C   0  0  0  0  0  0  0  0  0  0  0  0
   -5.2713    0.1657    0.0000 C   0  0  0  0  0  0  0  0  0  0  0  0
   -4.7313   -0.4579    0.0000 N   0  0  0  0  0  0  0  0  0  0  0  0
   -5.0013   -1.2375    0.0000 C   0  0  0  0  0  0  0  0  0  0  0  0
   -5.8114   -1.3934    0.0000 C   0  0  0  0  0  0  0  0  0  0  0  0
   -3.9211   -0.3020    0.0000 C   0  0  0  0  0  0  0  0  0  0  0  0
   -3.3810   -0.9257    0.0000 C   0  0  0  0  0  0  0  0  0  0  0  0
   -2.5709   -0.7698    0.0000 C   0  0  0  0  0  0  0  0  0  0  0  0
   -2.0308   -1.3934    0.0000 C   0  0  0  0  0  0  0  0  0  0  0  0
   -2.3009   -2.1730    0.0000 C   0  0  0  0  0  0  0  0  0  0  0  0
   -1.2207   -1.2375    0.0000 N   0  0  0  0  0  0  0  0  0  0  0  0
   -0.6806   -1.8611    0.0000 C   0  0  0  0  0  0  0  0  0  0  0  0
   -0.9506   -2.6407    0.0000 C   0  0  0  0  0  0  0  0  0  0  0  0
   -0.4105   -3.2643    0.0000 C   0  0  0  0  0  0  0  0  0  0  0  0
    0.3996   -3.1084    0.0000 N   0  0  0  0  0  0  0  0  0  0  0  0
    0.6696   -2.3289    0.0000 C   0  0  0  0  0  0  0  0  0  0  0  0
    0.1296   -1.7052    0.0000 C   0  0  0  0  0  0  0  0  0  0  0  0
    0.3996   -0.9257    0.0000 C   0  0  0  0  0  0  0  0  0  0  0  0
    1.2097   -0.7698    0.0000 C   0  0  0  0  0  0  0  0  0  0  0  0
    1.7498   -1.3934    0.0000 C   0  0  0  0  0  0  0  0  0  0  0  0
    1.4798   -2.1730    0.0000 C   0  0  0  0  0  0  0  0  0  0  0  0
    2.5600   -1.2375    0.0000 Cl  0  0  0  0  0  0  0  0  0  0  0  0
  1  2  1  0
  2  3  1  0
  3  4  1  0
  4  5  1  0
  3  6  1  0
  6  7  1  0
  7  8  1  0
  8  9  1  0
  9 10  1  0
  9 11  1  0
 11 12  1  0
 12 13  2  0
 13 14  1  0
 14 15  2  0
 15 16  1  0
 16 17  2  0
 12 17  1  0
 17 18  1  0
 18 19  2  0
 19 20  1  0
 20 21  2  0
 16 21  1  0
 20 22  1  0
M  END
>  <IC50>  (1) 
1.0

>  <NCGC_ID>  (1) 
NCGC00015256

>  <Name>  (1) 
Chloroquine

>  <PRIMARY_MOA>  (1) 
antimalarial agents

>  <StandardizerResult>  (1) 
Tautomerize (ID: Tautomerize)
Mesomerize (ID: Mesomerize)

>  <pIC50>  (1) 
0

$$$$
NCGC00015871
     RDKit          2D

 24 27  0  0  1  0  0  0  0  0999 V2000
    2.8579    0.0000    0.0000 C   0  0  0  0  0  0  0  0  0  0  0  0
    2.8579    0.8250    0.0000 O   0  0  0  0  0  0  0  0  0  0  0  0
    2.1434   -0.4125    0.0000 C   0  0  0  0  0  0  0  0  0  0  0  0
    2.1434   -1.2375    0.0000 C   0  0  0  0  0  0  0  0  0  0  0  0
    1.4289   -1.6500    0.0000 C   0  0  0  0  0  0  0  0  0  0  0  0
    0.7145   -1.2375    0.0000 N   0  0  0  0  0  0  0  0  0  0  0  0
    0.7145   -0.4125    0.0000 C   0  0  0  0  0  0  0  0  0  0  0  0
    0.0000    0.0000    0.0000 C   0  0  0  0  0  0  0  0  0  0  0  0
    0.0000    0.8250    0.0000 C   0  0  0  0  0  0  0  0  0  0  0  0
    0.7145    1.2375    0.0000 C   0  0  0  0  0  0  0  0  0  0  0  0
    0.7145    2.0625    0.0000 O   0  0  0  0  0  0  0  0  0  0  0  0
   -0.0000    2.4750    0.0000 C   0  0  0  0  0  0  0  0  0  0  0  0
    1.4289    0.8250    0.0000 C   0  0  0  0  0  0  0  0  0  0  0  0
    1.4289    0.0000    0.0000 C   0  0  0  0  0  0  0  0  0  0  0  0
    3.5724   -0.4125    0.0000 C   0  0  0  0  0  0  0  0  0  0  0  0
    4.2267    0.0086    0.0000 C   0  0  0  0  0  0  0  0  0  0  0  0
    4.1776   -0.8149    0.0000 C   0  0  0  0  0  0  0  0  0  0  0  0
    3.1599   -1.0648    0.0000 C   0  0  0  0  0  0  0  0  0  0  0  0
    2.6855   -1.5142    0.0000 C   0  0  0  0  0  0  0  0  0  0  0  0
    3.5333   -1.2215    0.0000 N   0  0  0  0  0  0  0  0  0  0  0  0
    4.1548   -1.8408    0.0000 C   0  0  0  0  0  0  0  0  0  0  0  0
    4.8186   -1.4647    0.0000 C   0  0  0  0  0  0  0  0  0  0  0  0
    5.6357   -1.5785    0.0000 C   0  0  0  0  0  0  0  0  0  0  0  0
    6.1429   -0.9278    0.0000 C   0  0  0  0  0  0  0  0  0  0  0  0
  1  2  1  0
  1  3  1  0
  3  4  2  0
  4  5  1  0
  5  6  2  0
  6  7  1  0
  7  8  2  0
  8  9  1  0
  9 10  2  0
 10 11  1  0
 11 12  1  0
 10 13  1  0
 13 14  2  0
  3 14  1  0
  7 14  1  0
 15  1  1  1
 15 16  1  0
 16 17  1  0
 17 18  1  0
 18 19  1  0
 19 20  1  0
 15 20  1  0
 20 21  1  0
 21 22  1  0
 17 22  1  0
 22 23  1  1
 23 24  2  0
M  END
>  <IC50>  (2) 
0.0389503518519

>  <NCGC_ID>  (2) 
NCGC00015871

>  <Name>  (2) 
Quinidine

>  <PRIMARY_MOA>  (2) 
Cytochrome P450 CYP2D6 Inhibitors

>  <StandardizerResult>  (2) 
Remove Explicit Hydrogens (ID: RemoveExplicitH)
Tautomerize (ID: Tautomerize)
Mesomerize (ID: Mesomerize)

>  <pIC50>  (2) 
1.40948861484

$$$$
NCGC00016526
     RDKit          2D

 25 29  0  0  0  0  0  0  0  0999 V2000
   -2.0731   -2.6170    0.0000 C   0  0  0  0  0  0  0  0  0  0  0  0
   -1.6498   -3.3251    0.0000 O   0  0  0  0  0  0  0  0  0  0  0  0
   -0.8249   -3.3125    0.0000 C   0  0  0  0  0  0  0  0  0  0  0  0
   -0.4016   -4.0207    0.0000 C   0  0  0  0  0  0  0  0  0  0  0  0
   -0.8032   -4.7413    0.0000 O   0  0  0  0  0  0  0  0  0  0  0  0
   -0.3799   -5.4494    0.0000 C   0  0  0  0  0  0  0  0  0  0  0  0
    0.4233   -4.0081    0.0000 C   0  0  0  0  0  0  0  0  0  0  0  0
    0.8249   -3.2875    0.0000 C   0  0  0  0  0  0  0  0  0  0  0  0
    0.4016   -2.5793    0.0000 C   0  0  0  0  0  0  0  0  0  0  0  0
   -0.4233   -2.5919    0.0000 C   0  0  0  0  0  0  0  0  0  0  0  0
    1.6498   -3.2749    0.0000 C   0  0  0  0  0  0  0  0  0  0  0  0
    2.0731   -3.9830    0.0000 C   0  0  0  0  0  0  0  0  0  0  0  0
    2.8980   -3.9705    0.0000 C   0  0  0  0  0  0  0  0  0  0  0  0
    3.2996   -3.2498    0.0000 C   0  0  0  0  0  0  0  0  0  0  0  0
    4.1245   -3.2373    0.0000 C   0  0  0  0  0  0  0  0  0  0  0  0
    4.5478   -3.9454    0.0000 C   0  0  0  0  0  0  0  0  0  0  0  0
    5.3521   -3.7616    0.0000 O   0  0  0  0  0  0  0  0  0  0  0  0
    5.4259   -2.9399    0.0000 C   0  0  0  0  0  0  0  0  0  0  0  0
    4.6672   -2.6158    0.0000 O   0  0  0  0  0  0  0  0  0  0  0  0
    4.1463   -4.6660    0.0000 C   0  0  0  0  0  0  0  0  0  0  0  0
    3.3213   -4.6786    0.0000 C   0  0  0  0  0  0  0  0  0  0  0  0
    2.9198   -5.3993    0.0000 C   0  0  0  0  0  0  0  0  0  0  0  0
    2.0949   -5.4118    0.0000 C   0  0  0  0  0  0  0  0  0  0  0  0
    1.6715   -4.7037    0.0000 N   0  0  0  0  0  0  0  0  0  0  0  0
    0.8466   -4.7162    0.0000 C   0  0  0  0  0  0  0  0  0  0  0  0
  1  2  1  0
  2  3  1  0
  3  4  2  0
  4  5  1  0
  5  6  1  0
  4  7  1  0
  7  8  2  0
  8  9  1  0
  9 10  2  0
  3 10  1  0
  8 11  1  0
 11 12  2  0
 12 13  1  0
 13 14  2  0
 14 15  1  0
 15 16  2  0
 16 17  1  0
 17 18  1  0
 18 19  1  0
 15 19  1  0
 16 20  1  0
 20 21  2  0
 13 21  1  0
 21 22  1  0
 22 23  1  0
 23 24  1  0
 12 24  1  0
 24 25  2  0
  7 25  1  0
M  CHG  1  24   1
M  END
>  <IC50>  (3) 
0.143884981818

>  <NCGC_ID>  (3) 
NCGC00016526

>  <Name>  (3) 
Berberine

>  <PRIMARY_MOA>  (3) 
Protein Tyrosine Phosphatase (PTP) Inhibitors

>  <StandardizerResult>  (3) 
Tautomerize (ID: Tautomerize)
Mesomerize (ID: Mesomerize)

>  <pIC50>  (3) 
0.841984533748

$$$$
NCGC00016528
     RDKit          2D

 17 17  0  0  0  0  0  0  0  0999 V2000
   -1.4289    5.7750    0.0000 C   0  0  0  0  0  0  0  0  0  0  0  0
   -1.4289    4.9500    0.0000 C   0  0  0  0  0  0  0  0  0  0  0  0
   -2.1434    4.5375    0.0000 C   0  0  0  0  0  0  0  0  0  0  0  0
   -0.7145    4.5375    0.0000 N   0  0  0  0  0  0  0  0  0  0  0  0
   -0.7145    3.7125    0.0000 C   0  0  0  0  0  0  0  0  0  0  0  0
   -1.4289    3.3000    0.0000 N   0  0  0  0  0  0  0  0  0  0  0  0
    0.0000    3.3000    0.0000 N   0  0  0  0  0  0  0  0  0  0  0  0
    0.0000    2.4750    0.0000 C   0  0  0  0  0  0  0  0  0  0  0  0
   -0.7145    2.0625    0.0000 N   0  0  0  0  0  0  0  0  0  0  0  0
    0.7145    2.0625    0.0000 N   0  0  0  0  0  0  0  0  0  0  0  0
    0.7145    1.2375    0.0000 C   0  0  0  0  0  0  0  0  0  0  0  0
    1.4289    0.8250    0.0000 C   0  0  0  0  0  0  0  0  0  0  0  0
    1.4289   -0.0000    0.0000 C   0  0  0  0  0  0  0  0  0  0  0  0
    0.7145   -0.4125    0.0000 C   0  0  0  0  0  0  0  0  0  0  0  0
    0.7145   -1.2375    0.0000 Cl  0  0  0  0  0  0  0  0  0  0  0  0
    0.0000    0.0000    0.0000 C   0  0  0  0  0  0  0  0  0  0  0  0
    0.0000    0.8250    0.0000 C   0  0  0  0  0  0  0  0  0  0  0  0
  1  2  1  0
  2  3  1  0
  4  2  1  0
  4  5  2  3
  5  6  1  0
  5  7  1  0
  7  8  1  0
  8  9  2  0
  8 10  1  0
 10 11  1  0
 11 12  2  0
 12 13  1  0
 13 14  2  0
 14 15  1  0
 14 16  1  0
 16 17  2  0
 11 17  1  0
M  END
>  <IC50>  (4) 
0.279363890909

>  <NCGC_ID>  (4) 
NCGC00016528

>  <Name>  (4) 
Proguanil

>  <PRIMARY_MOA>  (4) 
mito

>  <StandardizerResult>  (4) 
Tautomerize (ID: Tautomerize)
Mesomerize (ID: Mesomerize)

>  <pIC50>  (4) 
0.55382972919

$$$$
NCGC00016612
     RDKit          2D

 21 22  0  0  0  0  0  0  0  0999 V2000
    1.4289   -0.8250    0.0000 C   0  0  0  0  0  0  0  0  0  0  0  0
    2.1434   -1.2375    0.0000 O   0  0  0  0  0  0  0  0  0  0  0  0
    2.1434   -2.0625    0.0000 C   0  0  0  0  0  0  0  0  0  0  0  0
    1.4289   -2.4750    0.0000 N   0  0  0  0  0  0  0  0  0  0  0  0
    1.4289   -3.3000    0.0000 C   0  0  0  0  0  0  0  0  0  0  0  0
    2.1434   -3.7125    0.0000 N   0  0  0  0  0  0  0  0  0  0  0  0
    2.8579   -3.3000    0.0000 C   0  0  0  0  0  0  0  0  0  0  0  0
    2.8579   -2.4750    0.0000 C   0  0  0  0  0  0  0  0  0  0  0  0
    3.5724   -2.0625    0.0000 O   0  0  0  0  0  0  0  0  0  0  0  0
    4.2868   -2.4750    0.0000 C   0  0  0  0  0  0  0  0  0  0  0  0
    3.5724   -3.7125    0.0000 N   0  0  0  0  0  0  0  0  0  0  0  0
    3.5724   -4.5375    0.0000 S   0  0  0  0  0  0  0  0  0  0  0  0
    2.7474   -4.5375    0.0000 O   0  0  0  0  0  0  0  0  0  0  0  0
    4.3974   -4.5375    0.0000 O   0  0  0  0  0  0  0  0  0  0  0  0
    3.5724   -5.3625    0.0000 C   0  0  0  0  0  0  0  0  0  0  0  0
    4.2868   -5.7750    0.0000 C   0  0  0  0  0  0  0  0  0  0  0  0
    4.2868   -6.6000    0.0000 C   0  0  0  0  0  0  0  0  0  0  0  0
    3.5724   -7.0125    0.0000 C   0  0  0  0  0  0  0  0  0  0  0  0
    3.5724   -7.8375    0.0000 N   0  0  0  0  0  0  0  0  0  0  0  0
    2.8579   -6.6000    0.0000 C   0  0  0  0  0  0  0  0  0  0  0  0
    2.8579   -5.7750    0.0000 C   0  0  0  0  0  0  0  0  0  0  0  0
  1  2  1  0
  2  3  1  0
  3  4  2  0
  4  5  1  0
  5  6  2  0
  6  7  1  0
  7  8  2  0
  3  8  1  0
  8  9  1  0
  9 10  1  0
  7 11  1  0
 11 12  1  0
 12 13  2  0
 12 14  2  0
 12 15  1  0
 15 16  2  0
 16 17  1  0
 17 18  2  0
 18 19  1  0
 18 20  1  0
 20 21  2  0
 15 21  1  0
M  END
>  <IC50>  (5) 
13.2403553455

>  <NCGC_ID>  (5) 
NCGC00016612

>  <Name>  (5) 
Sulfadoxine

>  <PRIMARY_MOA>  (5) 
Dihydropteroate Synthase (DHPS) Inhibitors

>  <StandardizerResult>  (5) 
Tautomerize (ID: Tautomerize)
Mesomerize (ID: Mesomerize)

>  <pIC50>  (5) 
-1.12189964088

$$$$
NCGC00016864
     RDKit          2D

 26 28  0  0  1  0  0  0  0  0999 V2000
    0.7145    1.2375    0.0000 O   0  0  0  0  0  0  0  0  0  0  0  0
    0.0000    0.8250    0.0000 C   0  0  0  0  0  0  0  0  0  0  0  0
   -0.7145    1.2375    0.0000 C   0  0  0  0  0  0  0  0  0  0  0  0
   -1.4289    0.8250    0.0000 C   0  0  0  0  0  0  0  0  0  0  0  0
   -2.1434    1.2375    0.0000 C   0  0  0  0  0  0  0  0  0  0  0  0
   -2.1434    2.0625    0.0000 C   0  0  0  0  0  0  0  0  0  0  0  0
   -1.4289    2.4750    0.0000 C   0  0  0  0  0  0  0  0  0  0  0  0
   -0.7145    2.0625    0.0000 N   0  0  0  0  0  0  0  0  0  0  0  0
    0.0000   -0.0000    0.0000 C   0  0  0  0  0  0  0  0  0  0  0  0
   -0.7145   -0.4125    0.0000 C   0  0  0  0  0  0  0  0  0  0  0  0
   -0.7145   -1.2375    0.0000 C   0  0  0  0  0  0  0  0  0  0  0  0
    0.0000   -1.6500    0.0000 N   0  0  0  0  0  0  0  0  0  0  0  0
    0.7145   -1.2375    0.0000 C   0  0  0  0  0  0  0  0  0  0  0  0
    0.7145   -0.4125    0.0000 C   0  0  0  0  0  0  0  0  0  0  0  0
    1.4289   -0.0000    0.0000 C   0  0  0  0  0  0  0  0  0  0  0  0
    2.1434   -0.4125    0.0000 C   0  0  0  0  0  0  0  0  0  0  0  0
    2.1434   -1.2375    0.0000 C   0  0  0  0  0  0  0  0  0  0  0  0
    1.4289   -1.6500    0.0000 C   0  0  0  0  0  0  0  0  0  0  0  0
    1.4289   -2.4750    0.0000 C   0  0  0  0  0  0  0  0  0  0  0  0
    1.4289   -3.3000    0.0000 F   0  0  0  0  0  0  0  0  0  0  0  0
    0.6039   -2.4750    0.0000 F   0  0  0  0  0  0  0  0  0  0  0  0
    2.2539   -2.4750    0.0000 F   0  0  0  0  0  0  0  0  0  0  0  0
   -1.4289   -1.6500    0.0000 C   0  0  0  0  0  0  0  0  0  0  0  0
   -2.1434   -2.0625    0.0000 F   0  0  0  0  0  0  0  0  0  0  0  0
   -1.0164   -2.3645    0.0000 F   0  0  0  0  0  0  0  0  0  0  0  0
   -1.8414   -0.9355    0.0000 F   0  0  0  0  0  0  0  0  0  0  0  0
  2  1  1  6
  3  2  1  0
  3  4  1  1
  4  5  1  0
  5  6  1  0
  6  7  1  0
  7  8  1  0
  3  8  1  0
  2  9  1  0
  9 10  2  0
 10 11  1  0
 11 12  2  0
 12 13  1  0
 13 14  2  0
  9 14  1  0
 14 15  1  0
 15 16  2  0
 16 17  1  0
 17 18  2  0
 13 18  1  0
 18 19  1  0
 19 20  1  0
 19 21  1  0
 19 22  1  0
 11 23  1  0
 23 24  1  0
 23 25  1  0
 23 26  1  0
M  END
>  <IC50>  (6) 
0.0238357090909

>  <NCGC_ID>  (6) 
NCGC00016864

>  <Name>  (6) 
Mefloquine

>  <PRIMARY_MOA>  (6) 
Inhibtion of heme crystallization

>  <StandardizerResult>  (6) 
Tautomerize (ID: Tautomerize)
Mesomerize (ID: Mesomerize)

>  <pIC50>  (6) 
1.62277192367

$$$$
NCGC00016961
     RDKit          2D

 26 29  0  0  0  0  0  0  0  0999 V2000
   -1.4289    0.0000    0.0000 O   0  0  0  0  0  0  0  0  0  0  0  0
   -0.7145   -0.4125    0.0000 C   0  0  0  0  0  0  0  0  0  0  0  0
   -0.7145   -1.2375    0.0000 C   0  0  0  0  0  0  0  0  0  0  0  0
   -1.4289   -1.6500    0.0000 C   0  0  0  0  0  0  0  0  0  0  0  0
   -1.4289   -2.4750    0.0000 C   0  0  0  0  0  0  0  0  0  0  0  0
   -2.1434   -2.8875    0.0000 C   0  0  0  0  0  0  0  0  0  0  0  0
   -2.8579   -2.4750    0.0000 C   0  0  0  0  0  0  0  0  0  0  0  0
   -2.8579   -1.6500    0.0000 C   0  0  0  0  0  0  0  0  0  0  0  0
   -2.1434   -1.2375    0.0000 C   0  0  0  0  0  0  0  0  0  0  0  0
   -3.5724   -2.8875    0.0000 C   0  0  0  0  0  0  0  0  0  0  0  0
   -3.5724   -3.7125    0.0000 C   0  0  0  0  0  0  0  0  0  0  0  0
   -4.2868   -4.1250    0.0000 C   0  0  0  0  0  0  0  0  0  0  0  0
   -5.0013   -3.7125    0.0000 C   0  0  0  0  0  0  0  0  0  0  0  0
   -5.7158   -4.1250    0.0000 Cl  0  0  0  0  0  0  0  0  0  0  0  0
   -5.0013   -2.8875    0.0000 C   0  0  0  0  0  0  0  0  0  0  0  0
   -4.2868   -2.4750    0.0000 C   0  0  0  0  0  0  0  0  0  0  0  0
    0.0000   -1.6500    0.0000 C   0  0  0  0  0  0  0  0  0  0  0  0
    0.0000   -2.4750    0.0000 O   0  0  0  0  0  0  0  0  0  0  0  0
    0.7145   -1.2375    0.0000 C   0  0  0  0  0  0  0  0  0  0  0  0
    0.7145   -0.4125    0.0000 C   0  0  0  0  0  0  0  0  0  0  0  0
    1.4289   -0.0000    0.0000 C   0  0  0  0  0  0  0  0  0  0  0  0
    2.1434   -0.4125    0.0000 C   0  0  0  0  0  0  0  0  0  0  0  0
    2.1434   -1.2375    0.0000 C   0  0  0  0  0  0  0  0  0  0  0  0
    1.4289   -1.6500    0.0000 C   0  0  0  0  0  0  0  0  0  0  0  0
    0.0000   -0.0000    0.0000 C   0  0  0  0  0  0  0  0  0  0  0  0
    0.0000    0.8250    0.0000 O   0  0  0  0  0  0  0  0  0  0  0  0
  1  2  2  0
  2  3  1  0
  3  4  1  0
  4  5  1  0
  5  6  1  0
  6  7  1  0
  7  8  1  0
  8  9  1  0
  4  9  1  0
  7 10  1  0
 10 11  2  0
 11 12  1  0
 12 13  2  0
 13 14  1  0
 13 15  1  0
 15 16  2  0
 10 16  1  0
  3 17  2  0
 17 18  1  0
 17 19  1  0
 19 20  2  0
 20 21  1  0
 21 22  2  0
 22 23  1  0
 23 24  2  0
 19 24  1  0
 20 25  1  0
  2 25  1  0
 25 26  2  0
M  END
>  <IC50>  (7) 
0.000592927272727

>  <NCGC_ID>  (7) 
NCGC00016961

>  <Name>  (7) 
Atovaquone

>  <PRIMARY_MOA>  (7) 
Synergistic with proguanil, mitochondrial sensitizer (cytochrome bc1 complex)

>  <StandardizerResult>  (7) 
Tautomerize (ID: Tautomerize)
Mesomerize (ID: Mesomerize)

>  <pIC50>  (7) 
3.22699857306

$$$$
NCGC00017063
     RDKit          2D

 25 27  0  0  0  0  0  0  0  0999 V2000
   -5.0013    1.2375    0.0000 C   0  0  0  0  0  0  0  0  0  0  0  0
   -4.2868    0.8250    0.0000 C   0  0  0  0  0  0  0  0  0  0  0  0
   -3.5724    1.2375    0.0000 N   0  0  0  0  0  0  0  0  0  0  0  0
   -3.5724    2.0625    0.0000 C   0  0  0  0  0  0  0  0  0  0  0  0
   -4.2868    2.4750    0.0000 C   0  0  0  0  0  0  0  0  0  0  0  0
   -2.8579    0.8250    0.0000 C   0  0  0  0  0  0  0  0  0  0  0  0
   -2.1434    1.2375    0.0000 C   0  0  0  0  0  0  0  0  0  0  0  0
   -2.1434    2.0625    0.0000 C   0  0  0  0  0  0  0  0  0  0  0  0
   -2.8579    2.4750    0.0000 O   0  0  0  0  0  0  0  0  0  0  0  0
   -1.4289    2.4750    0.0000 C   0  0  0  0  0  0  0  0  0  0  0  0
   -0.7145    2.0625    0.0000 C   0  0  0  0  0  0  0  0  0  0  0  0
   -0.7145    1.2375    0.0000 C   0  0  0  0  0  0  0  0  0  0  0  0
   -1.4289    0.8250    0.0000 C   0  0  0  0  0  0  0  0  0  0  0  0
    0.0000    0.8250    0.0000 N   0  0  0  0  0  0  0  0  0  0  0  0
    0.0000   -0.0000    0.0000 C   0  0  0  0  0  0  0  0  0  0  0  0
   -0.7145   -0.4125    0.0000 C   0  0  0  0  0  0  0  0  0  0  0  0
   -0.7145   -1.2375    0.0000 C   0  0  0  0  0  0  0  0  0  0  0  0
    0.0000   -1.6500    0.0000 N   0  0  0  0  0  0  0  0  0  0  0  0
    0.7145   -1.2375    0.0000 C   0  0  0  0  0  0  0  0  0  0  0  0
    0.7145   -0.4125    0.0000 C   0  0  0  0  0  0  0  0  0  0  0  0
    1.4289   -0.0000    0.0000 C   0  0  0  0  0  0  0  0  0  0  0  0
    2.1434   -0.4125    0.0000 C   0  0  0  0  0  0  0  0  0  0  0  0
    2.1434   -1.2375    0.0000 C   0  0  0  0  0  0  0  0  0  0  0  0
    1.4289   -1.6500    0.0000 C   0  0  0  0  0  0  0  0  0  0  0  0
    2.8579   -1.6500    0.0000 Cl  0  0  0  0  0  0  0  0  0  0  0  0
  1  2  1  0
  2  3  1  0
  3  4  1  0
  4  5  1  0
  3  6  1  0
  6  7  1  0
  7  8  2  0
  8  9  1  0
  8 10  1  0
 10 11  2  0
 11 12  1  0
 12 13  2  0
  7 13  1  0
 12 14  1  0
 14 15  1  0
 15 16  2  0
 16 17  1  0
 17 18  2  0
 18 19  1  0
 19 20  2  0
 15 20  1  0
 20 21  1  0
 21 22  2  0
 22 23  1  0
 23 24  2  0
 19 24  1  0
 23 25  1  0
M  END
>  <IC50>  (8) 
0.0155632545455

>  <NCGC_ID>  (8) 
NCGC00017063

>  <Name>  (8) 
Amodiaquine

>  <PRIMARY_MOA>  (8) 
antimalarial

>  <StandardizerResult>  (8) 
Remove Fragment (ID: RemoveFragment)
Tautomerize (ID: Tautomerize)
Mesomerize (ID: Mesomerize)

>  <pIC50>  (8) 
1.80789957937

$$$$
NCGC00017363
     RDKit          2D

 20 21  0  0  1  0  0  0  0  0999 V2000
    1.4289   -1.6500    0.0000 C   0  0  0  0  0  0  0  0  0  0  0  0
    1.4289   -2.4750    0.0000 C   0  0  0  0  0  0  0  0  0  0  0  0
    2.1434   -2.8875    0.0000 C   0  0  0  0  0  0  0  0  0  0  0  0
    2.1434   -3.7125    0.0000 C   0  0  0  0  0  0  0  0  0  0  0  0
    2.8579   -4.1250    0.0000 C   0  0  0  0  0  0  0  0  0  0  0  0
    1.4289   -4.1250    0.0000 C   0  0  0  0  0  0  0  0  0  0  0  0
    1.4289   -4.9500    0.0000 O   0  0  0  0  0  0  0  0  0  0  0  0
    0.7145   -3.7125    0.0000 C   0  0  0  0  0  0  0  0  0  0  0  0
    0.7145   -2.8875    0.0000 C   0  0  0  0  0  0  0  0  0  0  0  0
    0.0000   -4.1250    0.0000 C   0  0  0  0  0  0  0  0  0  0  0  0
   -0.7145   -3.7125    0.0000 O   0  0  0  0  0  0  0  0  0  0  0  0
    0.0000   -4.9500    0.0000 C   0  0  0  0  0  0  0  0  0  0  0  0
   -0.7145   -5.3625    0.0000 C   0  0  0  0  0  0  0  0  0  0  0  0
   -0.7145   -6.1875    0.0000 C   0  0  0  0  0  0  0  0  0  0  0  0
   -1.4289   -6.6000    0.0000 C   0  0  0  0  0  0  0  0  0  0  0  0
   -1.4289   -7.4250    0.0000 O   0  0  0  0  0  0  0  0  0  0  0  0
   -2.1434   -6.1875    0.0000 N   0  0  0  0  0  0  0  0  0  0  0  0
   -2.1434   -5.3625    0.0000 C   0  0  0  0  0  0  0  0  0  0  0  0
   -2.8579   -4.9500    0.0000 O   0  0  0  0  0  0  0  0  0  0  0  0
   -1.4289   -4.9500    0.0000 C   0  0  0  0  0  0  0  0  0  0  0  0
  2  1  1  1
  2  3  1  0
  3  4  1  0
  4  5  1  6
  4  6  1  0
  6  7  2  0
  8  6  1  6
  8  9  1  0
  2  9  1  0
  8 10  1  0
 10 11  1  1
 10 12  1  0
 12 13  1  0
 13 14  1  0
 14 15  1  0
 15 16  2  0
 15 17  1  0
 17 18  1  0
 18 19  2  0
 18 20  1  0
 13 20  1  0
M  END
>  <IC50>  (9) 
0.269940963636

>  <NCGC_ID>  (9) 
NCGC00017363

>  <Name>  (9) 
cycloheximide

>  <PRIMARY_MOA>  (9) 
Glycogen Synthase Kinase 3 beta (GSK-3beta; tau Protein Kinase I) Inhibitor

>  <StandardizerResult>  (9) 
Tautomerize (ID: Tautomerize)
Mesomerize (ID: Mesomerize)

>  <pIC50>  (9) 
0.568731206102

$$$$
NCGC00024379
     RDKit          2D

 35 39  0  0  1  0  0  0  0  0999 V2000
   -2.1434   -1.2375    0.0000 C   0  0  0  0  0  0  0  0  0  0  0  0
   -2.1434   -0.4125    0.0000 C   0  0  0  0  0  0  0  0  0  0  0  0
   -2.8579   -0.0000    0.0000 C   0  0  0  0  0  0  0  0  0  0  0  0
   -2.8579    0.8250    0.0000 C   0  0  0  0  0  0  0  0  0  0  0  0
   -2.1434    1.2375    0.0000 C   0  0  0  0  0  0  0  0  0  0  0  0
   -2.1434    2.0625    0.0000 C   0  0  0  0  0  0  0  0  0  0  0  0
   -3.5724    1.2375    0.0000 C   0  0  0  0  0  0  0  0  0  0  0  0
   -4.2868    0.8250    0.0000 N   0  0  0  0  0  0  0  0  0  0  0  0
   -4.2868   -0.0000    0.0000 C   0  0  0  0  0  0  0  0  0  0  0  0
   -5.0013   -0.4125    0.0000 C   0  0  0  0  0  0  0  0  0  0  0  0
   -5.0013   -1.2375    0.0000 C   0  0  0  0  0  0  0  0  0  0  0  0
   -5.7158   -1.6500    0.0000 C   0  0  0  0  0  0  0  0  0  0  0  0
   -5.7158   -2.4750    0.0000 O   0  0  0  0  0  0  0  0  0  0  0  0
   -6.4302   -2.8875    0.0000 C   0  0  0  0  0  0  0  0  0  0  0  0
   -6.4302   -1.2375    0.0000 C   0  0  0  0  0  0  0  0  0  0  0  0
   -7.1447   -1.6500    0.0000 O   0  0  0  0  0  0  0  0  0  0  0  0
   -7.8592   -1.2375    0.0000 C   0  0  0  0  0  0  0  0  0  0  0  0
   -6.4302   -0.4125    0.0000 C   0  0  0  0  0  0  0  0  0  0  0  0
   -5.7158   -0.0000    0.0000 C   0  0  0  0  0  0  0  0  0  0  0  0
   -5.7158    0.8250    0.0000 C   0  0  0  0  0  0  0  0  0  0  0  0
   -5.0013    1.2375    0.0000 C   0  0  0  0  0  0  0  0  0  0  0  0
   -3.5724   -0.4125    0.0000 C   0  0  0  0  0  0  0  0  0  0  0  0
   -1.4289   -1.6500    0.0000 C   0  0  0  0  0  0  0  0  0  0  0  0
   -0.7145   -1.2375    0.0000 C   0  0  0  0  0  0  0  0  0  0  0  0
    0.0000   -1.6500    0.0000 C   0  0  0  0  0  0  0  0  0  0  0  0
    0.7145   -1.2375    0.0000 O   0  0  0  0  0  0  0  0  0  0  0  0
    1.4289   -1.6500    0.0000 C   0  0  0  0  0  0  0  0  0  0  0  0
    0.0000   -2.4750    0.0000 C   0  0  0  0  0  0  0  0  0  0  0  0
    0.7145   -2.8875    0.0000 O   0  0  0  0  0  0  0  0  0  0  0  0
    1.4289   -2.4750    0.0000 C   0  0  0  0  0  0  0  0  0  0  0  0
   -0.7145   -2.8875    0.0000 C   0  0  0  0  0  0  0  0  0  0  0  0
   -1.4289   -2.4750    0.0000 C   0  0  0  0  0  0  0  0  0  0  0  0
   -2.1434   -2.8875    0.0000 C   0  0  0  0  0  0  0  0  0  0  0  0
   -2.8579   -2.4750    0.0000 C   0  0  0  0  0  0  0  0  0  0  0  0
   -2.8579   -1.6500    0.0000 N   0  0  0  0  0  0  0  0  0  0  0  0
  1  2  1  6
  3  2  1  1
  3  4  1  0
  4  5  1  6
  5  6  1  0
  4  7  1  0
  7  8  1  0
  9  8  1  0
  9 10  1  1
 10 11  2  0
 11 12  1  0
 12 13  1  0
 13 14  1  0
 12 15  2  0
 15 16  1  0
 16 17  1  0
 15 18  1  0
 10 19  1  0
 18 19  2  0
 19 20  1  0
 20 21  1  0
  8 21  1  0
  9 22  1  0
  3 22  1  0
  1 23  1  0
 23 24  2  0
 24 25  1  0
 25 26  1  0
 26 27  1  0
 25 28  2  0
 28 29  1  0
 29 30  1  0
 28 31  1  0
 31 32  2  0
 23 32  1  0
 32 33  1  0
 33 34  1  0
 34 35  1  0
  1 35  1  0
M  END
>  <IC50>  (10) 
0.179439818182

>  <NCGC_ID>  (10) 
NCGC00024379

>  <Name>  (10) 
Emetine

>  <PRIMARY_MOA>  (10) 
antiprotozoal agent

>  <StandardizerResult>  (10) 
Remove Explicit Hydrogens (ID: RemoveExplicitH)
Tautomerize (ID: Tautomerize)
Mesomerize (ID: Mesomerize)

>  <pIC50>  (10) 
0.746081179476

$$$$
NCGC00025060
     RDKit          2D

 33 35  0  0  1  0  0  0  0  0999 V2000
   -2.8579   -7.4250    0.0000 C   0  0  0  0  0  0  0  0  0  0  0  0
   -2.1434   -7.8375    0.0000 N   0  0  0  0  0  0  0  0  0  0  0  0
   -2.1434   -8.6625    0.0000 C   0  0  0  0  0  0  0  0  0  0  0  0
   -2.8579   -9.0750    0.0000 C   0  0  0  0  0  0  0  0  0  0  0  0
   -2.8579   -9.9000    0.0000 N   0  0  0  0  0  0  0  0  0  0  0  0
   -3.5724  -10.3125    0.0000 C   0  0  0  0  0  0  0  0  0  0  0  0
   -3.5724  -11.1375    0.0000 C   0  0  0  0  0  0  0  0  0  0  0  0
   -2.8579  -11.5500    0.0000 N   0  0  0  0  0  0  0  0  0  0  0  0
   -4.2868  -11.5500    0.0000 N   0  0  0  0  0  0  0  0  0  0  0  0
   -5.0013  -11.1375    0.0000 C   0  0  0  0  0  0  0  0  0  0  0  0
   -5.7158  -11.5500    0.0000 N   0  0  0  0  0  0  0  0  0  0  0  0
   -5.0013  -10.3125    0.0000 N   0  0  0  0  0  0  0  0  0  0  0  0
   -4.2868   -9.9000    0.0000 C   0  0  0  0  0  0  0  0  0  0  0  0
   -4.2868   -9.0750    0.0000 N   0  0  0  0  0  0  0  0  0  0  0  0
   -3.5724   -8.6625    0.0000 C   0  0  0  0  0  0  0  0  0  0  0  0
   -1.4289   -7.4250    0.0000 C   0  0  0  0  0  0  0  0  0  0  0  0
   -1.4289   -6.6000    0.0000 C   0  0  0  0  0  0  0  0  0  0  0  0
   -0.7145   -6.1875    0.0000 C   0  0  0  0  0  0  0  0  0  0  0  0
    0.0000   -6.6000    0.0000 C   0  0  0  0  0  0  0  0  0  0  0  0
    0.0000   -7.4250    0.0000 C   0  0  0  0  0  0  0  0  0  0  0  0
   -0.7145   -7.8375    0.0000 C   0  0  0  0  0  0  0  0  0  0  0  0
    0.7145   -6.1875    0.0000 C   0  0  0  0  0  0  0  0  0  0  0  0
    0.7145   -5.3625    0.0000 O   0  0  0  0  0  0  0  0  0  0  0  0
    1.4289   -6.6000    0.0000 N   0  0  0  0  0  0  0  0  0  0  0  0
    2.1434   -6.1875    0.0000 C   0  0  0  0  0  0  0  0  0  0  0  0
    2.8579   -6.6000    0.0000 C   0  0  0  0  0  0  0  0  0  0  0  0
    3.5724   -6.1875    0.0000 C   0  0  0  0  0  0  0  0  0  0  0  0
    4.2868   -6.6000    0.0000 C   0  0  0  0  0  0  0  0  0  0  0  0
    5.0013   -6.1875    0.0000 O   0  0  0  0  0  0  0  0  0  0  0  0
    4.2868   -7.4250    0.0000 O   0  0  0  0  0  0  0  0  0  0  0  0
    2.1434   -5.3625    0.0000 C   0  0  0  0  0  0  0  0  0  0  0  0
    2.8579   -4.9500    0.0000 O   0  0  0  0  0  0  0  0  0  0  0  0
    1.4289   -4.9500    0.0000 O   0  0  0  0  0  0  0  0  0  0  0  0
  1  2  1  0
  2  3  1  0
  3  4  1  0
  4  5  2  0
  5  6  1  0
  6  7  2  0
  7  8  1  0
  7  9  1  0
  9 10  2  0
 10 11  1  0
 10 12  1  0
 12 13  2  0
  6 13  1  0
 13 14  1  0
 14 15  2  0
  4 15  1  0
  2 16  1  0
 16 17  2  0
 17 18  1  0
 18 19  2  0
 19 20  1  0
 20 21  2  0
 16 21  1  0
 19 22  1  0
 22 23  2  0
 22 24  1  0
 25 24  1  6
 25 26  1  0
 26 27  1  0
 27 28  1  0
 28 29  1  0
 28 30  2  0
 25 31  1  0
 31 32  1  0
 31 33  2  0
M  END
>  <IC50>  (11) 
0.0602071454545

>  <NCGC_ID>  (11) 
NCGC00025060

>  <Name>  (11) 
Methotrexate

>  <PRIMARY_MOA>  (11) 
Dihydrofolate Reductase (DHFR) Inhibitors

>  <StandardizerResult>  (11) 
Tautomerize (ID: Tautomerize)
Mesomerize (ID: Mesomerize)

>  <pIC50>  (11) 
1.22035196311

$$$$
NCGC00090753
     RDKit          2D

 52 54  0  0  1  0  0  0  0  0999 V2000
   -0.6738   -0.1744    0.0000 C   0  0  0  0  0  0  0  0  0  0  0  0
   -0.0107   -0.6652    0.0000 C   0  0  0  0  0  0  0  0  0  0  0  0
    0.7459   -0.3364    0.0000 C   0  0  0  0  0  0  0  0  0  0  0  0
    0.1807    0.2645    0.0000 O   0  0  0  0  0  0  0  0  0  0  0  0
    0.5776    0.9878    0.0000 C   0  0  0  0  0  0  0  0  0  0  0  0
    0.2258    1.7340    0.0000 O   0  0  0  0  0  0  0  0  0  0  0  0
    1.3881    0.8338    0.0000 C   0  0  0  0  0  0  0  0  0  0  0  0
    1.5172    0.0190    0.0000 C   0  0  0  0  0  0  0  0  0  0  0  0
    2.1796    1.2681    0.0000 C   0  0  0  0  0  0  0  0  0  0  0  0
    2.1796    2.0931    0.0000 O   0  0  0  0  0  0  0  0  0  0  0  0
    1.4651    2.5056    0.0000 C   0  0  0  0  0  0  0  0  0  0  0  0
    1.4651    3.3306    0.0000 C   0  0  0  0  0  0  0  0  0  0  0  0
    0.7506    3.7431    0.0000 C   0  0  0  0  0  0  0  0  0  0  0  0
    1.2809    4.3751    0.0000 C   0  0  0  0  0  0  0  0  0  0  0  0
    0.2203    4.3751    0.0000 O   0  0  0  0  0  0  0  0  0  0  0  0
    0.5025    5.1504    0.0000 C   0  0  0  0  0  0  0  0  0  0  0  0
    0.0362    3.3306    0.0000 C   0  0  0  0  0  0  0  0  0  0  0  0
   -0.6783    3.7431    0.0000 O   0  0  0  0  0  0  0  0  0  0  0  0
    0.0362    2.5056    0.0000 C   0  0  0  0  0  0  0  0  0  0  0  0
   -0.6783    2.0931    0.0000 C   0  0  0  0  0  0  0  0  0  0  0  0
    0.7506    2.0931    0.0000 O   0  0  0  0  0  0  0  0  0  0  0  0
    2.9028    0.8712    0.0000 C   0  0  0  0  0  0  0  0  0  0  0  0
    2.9207    0.0464    0.0000 C   0  0  0  0  0  0  0  0  0  0  0  0
    3.6082    1.2992    0.0000 C   0  0  0  0  0  0  0  0  0  0  0  0
    3.5903    2.1240    0.0000 O   0  0  0  0  0  0  0  0  0  0  0  0
    4.2956    2.5519    0.0000 C   0  0  0  0  0  0  0  0  0  0  0  0
    5.0189    2.1550    0.0000 O   0  0  0  0  0  0  0  0  0  0  0  0
    5.7242    2.5829    0.0000 C   0  0  0  0  0  0  0  0  0  0  0  0
    6.4475    2.1860    0.0000 C   0  0  0  0  0  0  0  0  0  0  0  0
    5.7063    3.4077    0.0000 C   0  0  0  0  0  0  0  0  0  0  0  0
    4.9830    3.8046    0.0000 C   0  0  0  0  0  0  0  0  0  0  0  0
    4.2777    3.3767    0.0000 C   0  0  0  0  0  0  0  0  0  0  0  0
    3.5544    3.7736    0.0000 O   0  0  0  0  0  0  0  0  0  0  0  0
    4.9651    4.6294    0.0000 N   0  0  0  0  0  0  0  0  0  0  0  0
    5.6705    5.0573    0.0000 C   0  0  0  0  0  0  0  0  0  0  0  0
    4.2419    5.0263    0.0000 C   0  0  0  0  0  0  0  0  0  0  0  0
    4.3314    0.9023    0.0000 C   0  0  0  0  0  0  0  0  0  0  0  0
    4.5967    1.6835    0.0000 C   0  0  0  0  0  0  0  0  0  0  0  0
    5.1468    0.7767    0.0000 O   0  0  0  0  0  0  0  0  0  0  0  0
    4.3493    0.0775    0.0000 C   0  0  0  0  0  0  0  0  0  0  0  0
    3.6440   -0.3505    0.0000 C   0  0  0  0  0  0  0  0  0  0  0  0
    2.8256   -0.4545    0.0000 C   0  0  0  0  0  0  0  0  0  0  0  0
    3.6619   -1.1753    0.0000 C   0  0  0  0  0  0  0  0  0  0  0  0
    2.9566   -1.6032    0.0000 N   0  0  0  0  0  0  0  0  0  0  0  0
    2.9745   -2.4280    0.0000 C   0  0  0  0  0  0  0  0  0  0  0  0
    2.2333   -1.2063    0.0000 C   0  0  0  0  0  0  0  0  0  0  0  0
    2.2154   -0.3815    0.0000 C   0  0  0  0  0  0  0  0  0  0  0  0
    1.5280   -1.6342    0.0000 C   0  0  0  0  0  0  0  0  0  0  0  0
    1.5459   -2.4590    0.0000 O   0  0  0  0  0  0  0  0  0  0  0  0
    0.8047   -1.2373    0.0000 C   0  0  0  0  0  0  0  0  0  0  0  0
    0.3947   -1.9532    0.0000 C   0  0  0  0  0  0  0  0  0  0  0  0
   -0.0174   -1.3060    0.0000 O   0  0  0  0  0  0  0  0  0  0  0  0
  1  2  1  0
  3  2  1  6
  3  4  1  0
  4  5  1  0
  5  6  2  0
  5  7  1  0
  7  8  1  1
  7  9  1  0
  9 10  1  1
 11 10  1  6
 11 12  1  0
 12 13  1  0
 13 14  1  1
 13 15  1  0
 15 16  1  0
 13 17  1  0
 17 18  1  6
 17 19  1  0
 19 20  1  1
 19 21  1  0
 11 21  1  0
  9 22  1  0
 22 23  1  1
 22 24  1  0
 24 25  1  1
 26 25  1  1
 26 27  1  0
 27 28  1  0
 28 29  1  1
 28 30  1  0
 30 31  1  0
 31 32  1  0
 26 32  1  0
 32 33  1  6
 31 34  1  1
 34 35  1  0
 34 36  1  0
 24 37  1  0
 37 38  1  1
 37 39  1  0
 37 40  1  0
 40 41  1  0
 41 42  1  6
 41 43  1  0
 43 44  1  0
 44 45  1  0
 44 46  1  0
 46 47  1  1
 46 48  1  0
 48 49  1  1
 48 50  1  0
  3 50  1  0
 50 51  1  1
 50 52  1  0
M  END
>  <IC50>  (12) 
1.89413665455

>  <NCGC_ID>  (12) 
NCGC00090753

>  <Name>  (12) 
Azithromycin

>  <PRIMARY_MOA>  (12) 
50S Ribosomal Protein Inhibitors

>  <StandardizerResult>  (12) 
Tautomerize (ID: Tautomerize)
Mesomerize (ID: Mesomerize)

>  <pIC50>  (12) 
-0.277411308444

$$$$
NCGC00091112
     RDKit          2D

 28 30  0  0  0  0  0  0  0  0999 V2000
   -1.4289   -0.0000    0.0000 C   0  0  0  0  0  0  0  0  0  0  0  0
   -0.7145   -0.4125    0.0000 N   0  0  0  0  0  0  0  0  0  0  0  0
    0.0000   -0.0000    0.0000 C   0  0  0  0  0  0  0  0  0  0  0  0
   -0.7145   -1.2375    0.0000 C   0  0  0  0  0  0  0  0  0  0  0  0
    0.0000   -1.6500    0.0000 C   0  0  0  0  0  0  0  0  0  0  0  0
    0.0000   -2.4750    0.0000 C   0  0  0  0  0  0  0  0  0  0  0  0
   -0.7145   -2.8875    0.0000 C   0  0  0  0  0  0  0  0  0  0  0  0
   -1.4289   -2.4750    0.0000 C   0  0  0  0  0  0  0  0  0  0  0  0
   -1.4289   -1.6500    0.0000 C   0  0  0  0  0  0  0  0  0  0  0  0
   -0.7145   -3.7125    0.0000 C   0  0  0  0  0  0  0  0  0  0  0  0
   -1.4289   -4.1250    0.0000 C   0  0  0  0  0  0  0  0  0  0  0  0
   -1.4289   -4.9500    0.0000 C   0  0  0  0  0  0  0  0  0  0  0  0
   -2.1434   -5.3625    0.0000 C   0  0  0  0  0  0  0  0  0  0  0  0
   -2.8579   -4.9500    0.0000 C   0  0  0  0  0  0  0  0  0  0  0  0
   -2.8579   -4.1250    0.0000 C   0  0  0  0  0  0  0  0  0  0  0  0
   -2.1434   -3.7125    0.0000 C   0  0  0  0  0  0  0  0  0  0  0  0
   -3.5724   -5.3625    0.0000 N   0  0  0  0  0  0  0  0  0  0  0  0
   -3.5724   -6.1875    0.0000 C   0  0  0  0  0  0  0  0  0  0  0  0
   -4.2868   -4.9500    0.0000 C   0  0  0  0  0  0  0  0  0  0  0  0
   -0.0000   -4.1250    0.0000 C   0  0  0  0  0  0  0  0  0  0  0  0
    0.7145   -3.7125    0.0000 C   0  0  0  0  0  0  0  0  0  0  0  0
    1.4289   -4.1250    0.0000 C   0  0  0  0  0  0  0  0  0  0  0  0
    1.4289   -4.9500    0.0000 C   0  0  0  0  0  0  0  0  0  0  0  0
    0.7145   -5.3625    0.0000 C   0  0  0  0  0  0  0  0  0  0  0  0
   -0.0000   -4.9500    0.0000 C   0  0  0  0  0  0  0  0  0  0  0  0
    2.1434   -5.3625    0.0000 N   0  0  0  0  0  0  0  0  0  0  0  0
    2.1434   -6.1875    0.0000 C   0  0  0  0  0  0  0  0  0  0  0  0
    2.8579   -4.9500    0.0000 C   0  0  0  0  0  0  0  0  0  0  0  0
  1  2  1  0
  2  3  1  0
  2  4  1  0
  4  5  2  0
  5  6  1  0
  6  7  2  0
  7  8  1  0
  8  9  2  0
  4  9  1  0
  7 10  1  0
 10 11  1  0
 11 12  2  0
 12 13  1  0
 13 14  2  0
 14 15  1  0
 15 16  2  0
 11 16  1  0
 14 17  1  0
 17 18  1  0
 17 19  1  0
 10 20  1  0
 20 21  2  0
 21 22  1  0
 22 23  2  0
 23 24  1  0
 24 25  2  0
 20 25  1  0
 23 26  1  0
 26 27  1  0
 26 28  1  0
M  CHG  1  10   1
M  END
>  <IC50>  (13) 
0.0540515090909

>  <NCGC_ID>  (13) 
NCGC00091112

>  <Name>  (13) 
Methylrosaniline chloride

>  <PRIMARY_MOA>  (13) 
TNFR1 (p55/CD120a) Modulator

>  <StandardizerResult>  (13) 
Tautomerize (ID: Tautomerize)
Mesomerize (ID: Mesomerize)

>  <pIC50>  (13) 
1.26719217626

$$$$
NCGC00095235
     RDKit          2D

 20 23  0  0  1  0  0  0  0  0999 V2000
    5.8565    0.8322    0.0000 C   0  0  0  0  0  0  0  0  0  0  0  0
    5.1861    0.3514    0.0000 C   0  0  0  0  0  0  0  0  0  0  0  0
    4.3732    0.0663    0.0000 O   0  0  0  0  0  0  0  0  0  0  0  0
    3.4380    0.3163    0.0000 C   0  0  0  0  0  0  0  0  0  0  0  0
    2.6097    0.6132    0.0000 O   0  0  0  0  0  0  0  0  0  0  0  0
    1.9000    0.1597    0.0000 C   0  0  0  0  0  0  0  0  0  0  0  0
    1.1151    0.4138    0.0000 O   0  0  0  0  0  0  0  0  0  0  0  0
    2.2118   -0.6307    0.0000 C   0  0  0  0  0  0  0  0  0  0  0  0
    1.6435   -1.2288    0.0000 C   0  0  0  0  0  0  0  0  0  0  0  0
    3.0277   -0.9053    0.0000 C   0  0  0  0  0  0  0  0  0  0  0  0
    2.9397   -1.7464    0.0000 C   0  0  0  0  0  0  0  0  0  0  0  0
    3.4901   -2.3634    0.0000 C   0  0  0  0  0  0  0  0  0  0  0  0
    4.2238   -1.9581    0.0000 C   0  0  0  0  0  0  0  0  0  0  0  0
    4.9022   -2.4275    0.0000 C   0  0  0  0  0  0  0  0  0  0  0  0
    4.3475   -1.1089    0.0000 C   0  0  0  0  0  0  0  0  0  0  0  0
    5.2058   -1.0522    0.0000 C   0  0  0  0  0  0  0  0  0  0  0  0
    5.6899   -0.3484    0.0000 C   0  0  0  0  0  0  0  0  0  0  0  0
    3.7677   -0.4142    0.0000 C   0  0  0  0  0  0  0  0  0  0  0  0
    4.0164    0.5167    0.0000 O   0  0  0  0  0  0  0  0  0  0  0  0
    4.6863    1.0511    0.0000 O   0  0  0  0  0  0  0  0  0  0  0  0
  2  1  1  1
  2  3  1  0
  4  3  1  0
  4  5  1  6
  5  6  1  0
  6  7  1  1
  6  8  1  0
  8  9  1  1
  8 10  1  0
 10 11  1  0
 11 12  1  0
 12 13  1  0
 13 14  1  6
 13 15  1  0
 15 16  1  1
 16 17  1  0
  2 17  1  0
 15 18  1  0
 18 10  1  6
  4 18  1  0
 18 19  1  0
 19 20  1  0
  2 20  1  0
M  END
>  <IC50>  (14) 
0.00193594545455

>  <NCGC_ID>  (14) 
NCGC00095235

>  <Name>  (14) 
Dihyrdoartemisinin (DHA)

>  <PRIMARY_MOA>  (14) 
Inhibtion of heme crystallization, redox disruption, SERCA, etc

>  <StandardizerResult>  (14) 
Tautomerize (ID: Tautomerize)
Mesomerize (ID: Mesomerize)

>  <pIC50>  (14) 
2.71310688315

$$$$
NCGC00095992
     RDKit          2D

 82 86  0  0  1  0  0  0  0  0999 V2000
    3.3362    0.3019    0.0000 C   0  0  0  0  0  0  0  0  0  0  0  0
    3.9904   -0.2007    0.0000 C   0  0  0  0  0  0  0  0  0  0  0  0
    3.8822   -1.0186    0.0000 C   0  0  0  0  0  0  0  0  0  0  0  0
    4.7528    0.1145    0.0000 C   0  0  0  0  0  0  0  0  0  0  0  0
    4.8609    0.9324    0.0000 C   0  0  0  0  0  0  0  0  0  0  0  0
    5.6233    1.2476    0.0000 N   0  0  0  0  0  0  0  0  0  0  0  0
    6.0165    0.5224    0.0000 C   0  0  0  0  0  0  0  0  0  0  0  0
    5.5850   -0.1808    0.0000 O   0  0  0  0  0  0  0  0  0  0  0  0
    6.8413    0.5003    0.0000 C   0  0  0  0  0  0  0  0  0  0  0  0
    7.2345   -0.2250    0.0000 C   0  0  0  0  0  0  0  0  0  0  0  0
    6.8029   -0.9282    0.0000 C   0  0  0  0  0  0  0  0  0  0  0  0
    7.1962   -1.6534    0.0000 C   0  0  0  0  0  0  0  0  0  0  0  0
    6.7646   -2.3566    0.0000 N   0  0  0  0  0  0  0  0  0  0  0  0
    7.2728    1.2034    0.0000 N   0  0  0  0  0  0  0  0  0  0  0  0
    8.0172    0.8478    0.0000 C   0  0  0  0  0  0  0  0  0  0  0  0
    8.0814    0.0253    0.0000 O   0  0  0  0  0  0  0  0  0  0  0  0
    8.6974    1.3146    0.0000 C   0  0  0  0  0  0  0  0  0  0  0  0
    8.6331    2.1371    0.0000 N   0  0  0  0  0  0  0  0  0  0  0  0
    9.4444    2.2870    0.0000 C   0  0  0  0  0  0  0  0  0  0  0  0
    9.9798    1.6593    0.0000 O   0  0  0  0  0  0  0  0  0  0  0  0
    9.7203    3.0645    0.0000 C   0  0  0  0  0  0  0  0  0  0  0  0
   10.4827    3.3797    0.0000 C   0  0  0  0  0  0  0  0  0  0  0  0
   10.4185    4.2022    0.0000 C   0  0  0  0  0  0  0  0  0  0  0  0
    9.5361    4.4800    0.0000 C   0  0  0  0  0  0  0  0  0  0  0  0
    9.1849    3.6921    0.0000 N   0  0  0  0  0  0  0  0  0  0  0  0
    9.7532    4.2902    0.0000 C   0  0  0  0  0  0  0  0  0  0  0  0
   10.5156    4.6055    0.0000 O   0  0  0  0  0  0  0  0  0  0  0  0
    9.5194    5.0814    0.0000 C   0  0  0  0  0  0  0  0  0  0  0  0
   10.0876    5.6795    0.0000 C   0  0  0  0  0  0  0  0  0  0  0  0
   10.8897    5.4864    0.0000 C   0  0  0  0  0  0  0  0  0  0  0  0
   11.4580    6.0845    0.0000 C   0  0  0  0  0  0  0  0  0  0  0  0
   12.2601    5.8914    0.0000 C   0  0  0  0  0  0  0  0  0  0  0  0
   12.4939    5.1002    0.0000 C   0  0  0  0  0  0  0  0  0  0  0  0
   11.9256    4.5021    0.0000 C   0  0  0  0  0  0  0  0  0  0  0  0
   11.1235    4.6952    0.0000 C   0  0  0  0  0  0  0  0  0  0  0  0
    8.7173    5.2745    0.0000 N   0  0  0  0  0  0  0  0  0  0  0  0
    8.8255    6.0924    0.0000 C   0  0  0  0  0  0  0  0  0  0  0  0
    9.5879    6.4076    0.0000 O   0  0  0  0  0  0  0  0  0  0  0  0
    8.1713    6.5950    0.0000 C   0  0  0  0  0  0  0  0  0  0  0  0
    8.2795    7.4129    0.0000 C   0  0  0  0  0  0  0  0  0  0  0  0
    9.0419    7.7281    0.0000 C   0  0  0  0  0  0  0  0  0  0  0  0
    9.1501    8.5460    0.0000 C   0  0  0  0  0  0  0  0  0  0  0  0
    9.6961    7.2255    0.0000 C   0  0  0  0  0  0  0  0  0  0  0  0
    7.4089    6.2798    0.0000 N   0  0  0  0  0  0  0  0  0  0  0  0
    7.0157    7.0050    0.0000 C   0  0  0  0  0  0  0  0  0  0  0  0
    7.4472    7.7082    0.0000 O   0  0  0  0  0  0  0  0  0  0  0  0
    6.1910    7.0271    0.0000 C   0  0  0  0  0  0  0  0  0  0  0  0
    5.7978    7.7524    0.0000 C   0  0  0  0  0  0  0  0  0  0  0  0
    6.2293    8.4556    0.0000 C   0  0  0  0  0  0  0  0  0  0  0  0
    5.8361    9.1808    0.0000 C   0  0  0  0  0  0  0  0  0  0  0  0
    6.2676    9.8840    0.0000 N   0  0  0  0  0  0  0  0  0  0  0  0
    5.7595    6.3240    0.0000 N   0  0  0  0  0  0  0  0  0  0  0  0
    5.0150    6.6796    0.0000 C   0  0  0  0  0  0  0  0  0  0  0  0
    4.9508    7.5021    0.0000 O   0  0  0  0  0  0  0  0  0  0  0  0
    4.3349    6.2128    0.0000 C   0  0  0  0  0  0  0  0  0  0  0  0
    4.3991    5.3903    0.0000 N   0  0  0  0  0  0  0  0  0  0  0  0
    3.5878    5.2404    0.0000 C   0  0  0  0  0  0  0  0  0  0  0  0
    3.0524    5.8681    0.0000 O   0  0  0  0  0  0  0  0  0  0  0  0
    3.3119    4.4629    0.0000 C   0  0  0  0  0  0  0  0  0  0  0  0
    2.5495    4.1477    0.0000 C   0  0  0  0  0  0  0  0  0  0  0  0
    2.6137    3.3252    0.0000 C   0  0  0  0  0  0  0  0  0  0  0  0
    3.4961    3.0474    0.0000 C   0  0  0  0  0  0  0  0  0  0  0  0
    3.8473    3.8353    0.0000 N   0  0  0  0  0  0  0  0  0  0  0  0
    3.2790    3.2372    0.0000 C   0  0  0  0  0  0  0  0  0  0  0  0
    2.5166    2.9219    0.0000 O   0  0  0  0  0  0  0  0  0  0  0  0
    3.5129    2.4460    0.0000 C   0  0  0  0  0  0  0  0  0  0  0  0
    2.9446    1.8479    0.0000 C   0  0  0  0  0  0  0  0  0  0  0  0
    2.1425    2.0410    0.0000 C   0  0  0  0  0  0  0  0  0  0  0  0
    1.5742    1.4429    0.0000 C   0  0  0  0  0  0  0  0  0  0  0  0
    0.7722    1.6360    0.0000 C   0  0  0  0  0  0  0  0  0  0  0  0
    0.5383    2.4272    0.0000 C   0  0  0  0  0  0  0  0  0  0  0  0
    1.1066    3.0253    0.0000 C   0  0  0  0  0  0  0  0  0  0  0  0
    1.9087    2.8322    0.0000 C   0  0  0  0  0  0  0  0  0  0  0  0
    4.3149    2.2529    0.0000 N   0  0  0  0  0  0  0  0  0  0  0  0
    4.2067    1.4350    0.0000 C   0  0  0  0  0  0  0  0  0  0  0  0
    3.4443    1.1198    0.0000 O   0  0  0  0  0  0  0  0  0  0  0  0
    3.5904    6.5684    0.0000 C   0  0  0  0  0  0  0  0  0  0  0  0
    2.7993    6.3346    0.0000 C   0  0  0  0  0  0  0  0  0  0  0  0
    3.5262    7.3909    0.0000 C   0  0  0  0  0  0  0  0  0  0  0  0
    9.4418    0.9590    0.0000 C   0  0  0  0  0  0  0  0  0  0  0  0
   10.2329    1.1928    0.0000 C   0  0  0  0  0  0  0  0  0  0  0  0
    9.5060    0.1365    0.0000 C   0  0  0  0  0  0  0  0  0  0  0  0
  1  2  1  0
  2  3  1  0
  2  4  1  0
  5  4  1  1
  5  6  1  0
  6  7  1  0
  7  8  2  0
  7  9  1  0
  9 10  1  1
 10 11  1  0
 11 12  1  0
 12 13  1  0
  9 14  1  0
 14 15  1  0
 15 16  2  0
 15 17  1  0
 17 18  1  0
 18 19  1  0
 19 20  2  0
 21 19  1  1
 21 22  1  0
 22 23  1  0
 23 24  1  0
 24 25  1  0
 21 25  1  0
 25 26  1  0
 26 27  2  0
 26 28  1  0
 28 29  1  6
 29 30  1  0
 30 31  2  0
 31 32  1  0
 32 33  2  0
 33 34  1  0
 34 35  2  0
 30 35  1  0
 28 36  1  0
 36 37  1  0
 37 38  2  0
 37 39  1  0
 39 40  1  1
 40 41  1  0
 41 42  1  0
 41 43  1  0
 39 44  1  0
 44 45  1  0
 45 46  2  0
 45 47  1  0
 47 48  1  1
 48 49  1  0
 49 50  1  0
 50 51  1  0
 47 52  1  0
 52 53  1  0
 53 54  2  0
 53 55  1  0
 55 56  1  0
 56 57  1  0
 57 58  2  0
 59 57  1  1
 59 60  1  0
 60 61  1  0
 61 62  1  0
 62 63  1  0
 59 63  1  0
 63 64  1  0
 64 65  2  0
 64 66  1  0
 66 67  1  6
 67 68  1  0
 68 69  2  0
 69 70  1  0
 70 71  2  0
 71 72  1  0
 72 73  2  0
 68 73  1  0
 66 74  1  0
 74 75  1  0
  5 75  1  0
 75 76  2  0
 55 77  1  1
 77 78  1  0
 77 79  1  0
 17 80  1  1
 80 81  1  0
 80 82  1  0
M  END
>  <IC50>  (15) 
0.00577912727273

>  <NCGC_ID>  (15) 
NCGC00095992

>  <Name>  (15) 
Gramicidin

>  <PRIMARY_MOA>  (15) 
Antibacterial

>  <StandardizerResult>  (15) 
Tautomerize (ID: Tautomerize)
Mesomerize (ID: Mesomerize)

>  <pIC50>  (15) 
2.23813774104

$$$$
NCGC00159445
     RDKit          2D

 20 22  0  0  0  0  0  0  0  0999 V2000
    0.0000   -2.4750    0.0000 C   0  0  0  0  0  0  0  0  0  0  0  0
    0.7145   -2.8875    0.0000 N   0  0  0  0  0  0  0  0  0  0  0  0
    0.7145   -3.7125    0.0000 C   0  0  0  0  0  0  0  0  0  0  0  0
    1.4289   -2.4750    0.0000 C   0  0  0  0  0  0  0  0  0  0  0  0
    1.4289   -1.6500    0.0000 C   0  0  0  0  0  0  0  0  0  0  0  0
    2.1434   -1.2375    0.0000 C   0  0  0  0  0  0  0  0  0  0  0  0
    2.8579   -1.6500    0.0000 C   0  0  0  0  0  0  0  0  0  0  0  0
    3.5724   -1.2375    0.0000 N   0  0  0  0  0  0  0  0  0  0  0  0
    4.2868   -1.6500    0.0000 C   0  0  0  0  0  0  0  0  0  0  0  0
    5.0013   -1.2375    0.0000 C   0  0  0  0  0  0  0  0  0  0  0  0
    5.7158   -1.6500    0.0000 C   0  0  0  0  0  0  0  0  0  0  0  0
    5.7158   -2.4750    0.0000 C   0  0  0  0  0  0  0  0  0  0  0  0
    5.0013   -2.8875    0.0000 C   0  0  0  0  0  0  0  0  0  0  0  0
    4.2868   -2.4750    0.0000 C   0  0  0  0  0  0  0  0  0  0  0  0
    3.5724   -2.8875    0.0000 S   0  0  0  0  0  0  0  0  0  0  0  0
    2.8579   -2.4750    0.0000 C   0  0  0  0  0  0  0  0  0  0  0  0
    2.1434   -2.8875    0.0000 C   0  0  0  0  0  0  0  0  0  0  0  0
    6.4302   -2.8875    0.0000 N   0  0  0  0  0  0  0  0  0  0  0  0
    7.1447   -2.4750    0.0000 C   0  0  0  0  0  0  0  0  0  0  0  0
    6.4302   -3.7125    0.0000 C   0  0  0  0  0  0  0  0  0  0  0  0
  1  2  1  0
  2  3  1  0
  2  4  1  0
  4  5  2  0
  5  6  1  0
  6  7  2  0
  7  8  1  0
  8  9  2  0
  9 10  1  0
 10 11  2  0
 11 12  1  0
 12 13  2  0
 13 14  1  0
  9 14  1  0
 14 15  2  0
 15 16  1  0
  7 16  1  0
 16 17  2  0
  4 17  1  0
 12 18  1  0
 18 19  1  0
 18 20  1  0
M  CHG  1  15   1
M  END
>  <IC50>  (16) 
0.00704269090909

>  <NCGC_ID>  (16) 
NCGC00159445

>  <Name>  (16) 
Methylene blue

>  <PRIMARY_MOA>  (16) 
possible altered redox environment, glutathione reductase inhibitor

>  <StandardizerResult>  (16) 
Tautomerize (ID: Tautomerize)
Mesomerize (ID: Mesomerize)

>  <pIC50>  (16) 
2.15226137159

$$$$
NCGC00161602
     RDKit          2D

 32 35  0  0  1  0  0  0  0  0999 V2000
    2.1434    2.0625    0.0000 C   0  0  0  0  0  0  0  0  0  0  0  0
    2.1434    1.2375    0.0000 C   0  0  0  0  0  0  0  0  0  0  0  0
    2.8579    0.8250    0.0000 C   0  0  0  0  0  0  0  0  0  0  0  0
    3.5724    1.2375    0.0000 C   0  0  0  0  0  0  0  0  0  0  0  0
    3.5724    2.0625    0.0000 O   0  0  0  0  0  0  0  0  0  0  0  0
    4.2868    0.8250    0.0000 C   0  0  0  0  0  0  0  0  0  0  0  0
    5.0013    1.2375    0.0000 C   0  0  0  0  0  0  0  0  0  0  0  0
    5.0013    2.0625    0.0000 N   0  0  0  0  0  0  0  0  0  0  0  0
    5.7158    2.4750    0.0000 C   0  0  0  0  0  0  0  0  0  0  0  0
    4.2868    2.4750    0.0000 C   0  0  0  0  0  0  0  0  0  0  0  0
    5.7158    0.8250    0.0000 C   0  0  0  0  0  0  0  0  0  0  0  0
    5.7158   -0.0000    0.0000 C   0  0  0  0  0  0  0  0  0  0  0  0
    6.4302   -0.4125    0.0000 C   0  0  0  0  0  0  0  0  0  0  0  0
    7.1447   -0.0000    0.0000 N   0  0  0  0  0  0  0  0  0  0  0  0
    6.4302   -1.2375    0.0000 O   0  0  0  0  0  0  0  0  0  0  0  0
    5.0013   -0.4125    0.0000 C   0  0  0  0  0  0  0  0  0  0  0  0
    5.0013   -1.2375    0.0000 O   0  0  0  0  0  0  0  0  0  0  0  0
    4.2868    0.0000    0.0000 C   0  0  0  0  0  0  0  0  0  0  0  0
    4.2868   -0.8250    0.0000 O   0  0  0  0  0  0  0  0  0  0  0  0
    3.5724   -0.4125    0.0000 C   0  0  0  0  0  0  0  0  0  0  0  0
    2.8579    0.0000    0.0000 C   0  0  0  0  0  0  0  0  0  0  0  0
    2.1434   -0.4125    0.0000 C   0  0  0  0  0  0  0  0  0  0  0  0
    2.1434   -1.2375    0.0000 O   0  0  0  0  0  0  0  0  0  0  0  0
    1.4289    0.0000    0.0000 C   0  0  0  0  0  0  0  0  0  0  0  0
    0.7145   -0.4125    0.0000 C   0  0  0  0  0  0  0  0  0  0  0  0
    0.7145   -1.2375    0.0000 O   0  0  0  0  0  0  0  0  0  0  0  0
    0.0000   -0.0000    0.0000 C   0  0  0  0  0  0  0  0  0  0  0  0
    0.0000    0.8250    0.0000 C   0  0  0  0  0  0  0  0  0  0  0  0
    0.7145    1.2375    0.0000 C   0  0  0  0  0  0  0  0  0  0  0  0
    1.4289    0.8250    0.0000 C   0  0  0  0  0  0  0  0  0  0  0  0
    3.5724   -1.2375    0.0000 O   0  0  0  0  0  0  0  0  0  0  0  0
    6.4302    1.2375    0.0000 O   0  0  0  0  0  0  0  0  0  0  0  0
  2  1  1  6
  2  3  1  0
  3  4  1  0
  4  5  1  6
  4  6  1  0
  6  7  1  1
  7  8  1  6
  8  9  1  0
  8 10  1  0
  7 11  1  0
 11 12  1  0
 12 13  1  0
 13 14  1  0
 13 15  2  0
 12 16  2  0
 16 17  1  0
 16 18  1  0
  6 18  1  0
 18 19  1  6
 18 20  1  0
 20 21  2  0
  3 21  1  1
 21 22  1  0
 22 23  2  0
 22 24  1  0
 24 25  2  0
 25 26  1  0
 25 27  1  0
 27 28  2  0
 28 29  1  0
 29 30  2  0
  2 30  1  0
 24 30  1  0
 20 31  1  0
 11 32  2  0
M  END
>  <IC50>  (17) 
0.962307927273

>  <NCGC_ID>  (17) 
NCGC00161602

>  <Name>  (17) 
Doxycycline

>  <PRIMARY_MOA>  (17) 
Matrix Metalloproteinase Inhibitors

>  <StandardizerResult>  (17) 
Tautomerize (ID: Tautomerize)
Mesomerize (ID: Mesomerize)

>  <pIC50>  (17) 
0.0166859365725

$$$$
NCGC00162398
     RDKit          2D

 51 57  0  0  0  0  0  0  0  0999 V2000
   -0.7145    2.0625    0.0000 C   0  0  0  0  0  0  0  0  0  0  0  0
    0.0000    1.6500    0.0000 N   0  0  0  0  0  0  0  0  0  0  0  0
    0.7145    2.0625    0.0000 C   0  0  0  0  0  0  0  0  0  0  0  0
    1.4289    1.6500    0.0000 C   0  0  0  0  0  0  0  0  0  0  0  0
    2.1434    2.0625    0.0000 C   0  0  0  0  0  0  0  0  0  0  0  0
    2.1434    2.8875    0.0000 C   0  0  0  0  0  0  0  0  0  0  0  0
    2.8579    3.3000    0.0000 C   0  0  0  0  0  0  0  0  0  0  0  0
    3.5724    2.8875    0.0000 C   0  0  0  0  0  0  0  0  0  0  0  0
    4.2868    3.3000    0.0000 O   0  0  0  0  0  0  0  0  0  0  0  0
    5.0013    2.8875    0.0000 S   0  0  0  0  0  0  0  0  0  0  0  0
    5.4138    3.6020    0.0000 O   0  0  0  0  0  0  0  0  0  0  0  0
    4.5888    2.1730    0.0000 O   0  0  0  0  0  0  0  0  0  0  0  0
    5.7158    2.4750    0.0000 C   0  0  0  0  0  0  0  0  0  0  0  0
    5.7158    1.6500    0.0000 C   0  0  0  0  0  0  0  0  0  0  0  0
    6.4302    1.2375    0.0000 C   0  0  0  0  0  0  0  0  0  0  0  0
    7.1447    1.6500    0.0000 C   0  0  0  0  0  0  0  0  0  0  0  0
    7.1447    2.4750    0.0000 C   0  0  0  0  0  0  0  0  0  0  0  0
    6.4302    2.8875    0.0000 C   0  0  0  0  0  0  0  0  0  0  0  0
    6.4302    3.7125    0.0000 C   0  0  0  0  0  0  0  0  0  0  0  0
    7.1447    4.1250    0.0000 C   0  0  0  0  0  0  0  0  0  0  0  0
    7.8592    3.7125    0.0000 N   0  0  0  0  0  0  0  0  0  0  0  0
    7.8592    2.8875    0.0000 C   0  0  0  0  0  0  0  0  0  0  0  0
    3.5724    2.0625    0.0000 C   0  0  0  0  0  0  0  0  0  0  0  0
    2.8579    1.6500    0.0000 C   0  0  0  0  0  0  0  0  0  0  0  0
    0.7145    2.8875    0.0000 C   0  0  0  0  0  0  0  0  0  0  0  0
    1.4289    3.3000    0.0000 O   0  0  0  0  0  0  0  0  0  0  0  0
    0.0000    3.3000    0.0000 N   0  0  0  0  0  0  0  0  0  0  0  0
   -0.7145    2.8875    0.0000 C   0  0  0  0  0  0  0  0  0  0  0  0
   -1.4289    3.3000    0.0000 C   0  0  0  0  0  0  0  0  0  0  0  0
   -1.4289    4.1250    0.0000 N   0  0  0  0  0  0  0  0  0  0  0  0
   -0.7145    4.5375    0.0000 C   0  0  0  0  0  0  0  0  0  0  0  0
    0.0000    4.1250    0.0000 C   0  0  0  0  0  0  0  0  0  0  0  0
   -2.1434    4.5375    0.0000 C   0  0  0  0  0  0  0  0  0  0  0  0
   -2.8579    4.1250    0.0000 C   0  0  0  0  0  0  0  0  0  0  0  0
   -3.5724    4.5375    0.0000 C   0  0  0  0  0  0  0  0  0  0  0  0
   -3.5724    5.3625    0.0000 C   0  0  0  0  0  0  0  0  0  0  0  0
   -2.8579    5.7750    0.0000 C   0  0  0  0  0  0  0  0  0  0  0  0
   -2.1434    5.3625    0.0000 C   0  0  0  0  0  0  0  0  0  0  0  0
    0.0000    0.8250    0.0000 S   0  0  0  0  0  0  0  0  0  0  0  0
   -0.8250    0.8250    0.0000 O   0  0  0  0  0  0  0  0  0  0  0  0
    0.8250    0.8250    0.0000 O   0  0  0  0  0  0  0  0  0  0  0  0
    0.0000   -0.0000    0.0000 C   0  0  0  0  0  0  0  0  0  0  0  0
   -0.7145   -0.4125    0.0000 C   0  0  0  0  0  0  0  0  0  0  0  0
   -0.7145   -1.2375    0.0000 C   0  0  0  0  0  0  0  0  0  0  0  0
    0.0000   -1.6500    0.0000 C   0  0  0  0  0  0  0  0  0  0  0  0
    0.7145   -1.2375    0.0000 C   0  0  0  0  0  0  0  0  0  0  0  0
    0.7145   -0.4125    0.0000 C   0  0  0  0  0  0  0  0  0  0  0  0
    1.4289   -0.0000    0.0000 C   0  0  0  0  0  0  0  0  0  0  0  0
    2.1434   -0.4125    0.0000 C   0  0  0  0  0  0  0  0  0  0  0  0
    2.1434   -1.2375    0.0000 N   0  0  0  0  0  0  0  0  0  0  0  0
    1.4289   -1.6500    0.0000 C   0  0  0  0  0  0  0  0  0  0  0  0
  1  2  1  0
  3  2  1  6
  3  4  1  0
  4  5  1  0
  5  6  2  0
  6  7  1  0
  7  8  2  0
  8  9  1  0
  9 10  1  0
 10 11  2  0
 10 12  2  0
 10 13  1  0
 13 14  2  0
 14 15  1  0
 15 16  2  0
 16 17  1  0
 17 18  2  0
 13 18  1  0
 18 19  1  0
 19 20  2  0
 20 21  1  0
 21 22  2  0
 17 22  1  0
  8 23  1  0
 23 24  2  0
  5 24  1  0
  3 25  1  0
 25 26  2  0
 25 27  1  0
 27 28  1  0
 28 29  1  0
 29 30  1  0
 30 31  1  0
 31 32  1  0
 27 32  1  0
 30 33  1  0
 33 34  2  0
 34 35  1  0
 35 36  2  0
 36 37  1  0
 37 38  2  0
 33 38  1  0
  2 39  1  0
 39 40  2  0
 39 41  2  0
 39 42  1  0
 42 43  2  0
 43 44  1  0
 44 45  2  0
 45 46  1  0
 46 47  2  0
 42 47  1  0
 47 48  1  0
 48 49  2  0
 49 50  1  0
 50 51  2  0
 46 51  1  0
M  END
>  <IC50>  (18) 
0.575541345455

>  <NCGC_ID>  (18) 
NCGC00162398

>  <Name>  (18) 
KN-62

>  <PRIMARY_MOA>  (18) 
Ca2+/calmodulin dependent kinase inhibitor

>  <StandardizerResult>  (18) 
Tautomerize (ID: Tautomerize)
Mesomerize (ID: Mesomerize)

>  <pIC50>  (18) 
0.239923472281

$$$$
NCGC00162409
     RDKit          2D

 44 45  0  0  1  0  0  0  0  0999 V2000
    3.7920   -0.6907    0.0000 C   0  0  0  0  0  0  0  0  0  0  0  0
    3.7560   -1.5150    0.0000 O   0  0  0  0  0  0  0  0  0  0  0  0
    4.4518   -1.9582    0.0000 C   0  0  0  0  0  0  0  0  0  0  0  0
    5.0223   -1.3623    0.0000 C   0  0  0  0  0  0  0  0  0  0  0  0
    5.7775   -1.0300    0.0000 C   0  0  0  0  0  0  0  0  0  0  0  0
    6.6023   -1.0120    0.0000 C   0  0  0  0  0  0  0  0  0  0  0  0
    7.3712   -1.3110    0.0000 C   0  0  0  0  0  0  0  0  0  0  0  0
    7.8145   -0.6152    0.0000 C   0  0  0  0  0  0  0  0  0  0  0  0
    7.9671   -1.8815    0.0000 C   0  0  0  0  0  0  0  0  0  0  0  0
    8.2994   -2.6367    0.0000 C   0  0  0  0  0  0  0  0  0  0  0  0
    9.1048   -2.4581    0.0000 C   0  0  0  0  0  0  0  0  0  0  0  0
    8.3174   -3.4615    0.0000 C   0  0  0  0  0  0  0  0  0  0  0  0
    9.1299   -3.6047    0.0000 O   0  0  0  0  0  0  0  0  0  0  0  0
    8.0184   -4.2304    0.0000 C   0  0  0  0  0  0  0  0  0  0  0  0
    8.7142   -4.6736    0.0000 C   0  0  0  0  0  0  0  0  0  0  0  0
    7.4479   -4.8263    0.0000 C   0  0  0  0  0  0  0  0  0  0  0  0
    6.6928   -5.1586    0.0000 C   0  0  0  0  0  0  0  0  0  0  0  0
    6.8713   -5.9640    0.0000 C   0  0  0  0  0  0  0  0  0  0  0  0
    5.8679   -5.1766    0.0000 C   0  0  0  0  0  0  0  0  0  0  0  0
    5.0990   -4.8776    0.0000 C   0  0  0  0  0  0  0  0  0  0  0  0
    4.6558   -5.5734    0.0000 O   0  0  0  0  0  0  0  0  0  0  0  0
    3.8316   -5.5374    0.0000 C   0  0  0  0  0  0  0  0  0  0  0  0
    4.5031   -4.3071    0.0000 C   0  0  0  0  0  0  0  0  0  0  0  0
    3.8273   -4.7803    0.0000 O   0  0  0  0  0  0  0  0  0  0  0  0
    4.1708   -3.5519    0.0000 O   0  0  0  0  0  0  0  0  0  0  0  0
    4.1528   -2.7271    0.0000 C   0  0  0  0  0  0  0  0  0  0  0  0
    3.3404   -2.5839    0.0000 C   0  0  0  0  0  0  0  0  0  0  0  0
    3.0582   -1.8086    0.0000 C   0  0  0  0  0  0  0  0  0  0  0  0
    2.8101   -3.2159    0.0000 C   0  0  0  0  0  0  0  0  0  0  0  0
    3.0922   -3.9911    0.0000 O   0  0  0  0  0  0  0  0  0  0  0  0
    1.9976   -3.0726    0.0000 C   0  0  0  0  0  0  0  0  0  0  0  0
    1.7154   -2.2974    0.0000 C   0  0  0  0  0  0  0  0  0  0  0  0
    1.4673   -3.7046    0.0000 C   0  0  0  0  0  0  0  0  0  0  0  0
    0.9370   -3.0726    0.0000 O   0  0  0  0  0  0  0  0  0  0  0  0
    2.1818   -4.1171    0.0000 C   0  0  0  0  0  0  0  0  0  0  0  0
    2.1818   -4.9421    0.0000 C   0  0  0  0  0  0  0  0  0  0  0  0
    2.8962   -5.3546    0.0000 O   0  0  0  0  0  0  0  0  0  0  0  0
    1.4673   -5.3546    0.0000 C   0  0  0  0  0  0  0  0  0  0  0  0
    1.4673   -6.1796    0.0000 C   0  0  0  0  0  0  0  0  0  0  0  0
    0.7528   -4.9421    0.0000 C   0  0  0  0  0  0  0  0  0  0  0  0
    0.7528   -4.1171    0.0000 O   0  0  0  0  0  0  0  0  0  0  0  0
    0.0384   -5.3546    0.0000 C   0  0  0  0  0  0  0  0  0  0  0  0
   -0.6761   -4.9421    0.0000 C   0  0  0  0  0  0  0  0  0  0  0  0
    0.0384   -6.1796    0.0000 C   0  0  0  0  0  0  0  0  0  0  0  0
  1  2  1  0
  3  2  1  1
  3  4  1  0
  4  5  2  0
  5  6  1  0
  6  7  2  0
  7  8  1  0
  7  9  1  0
  9 10  1  0
 10 11  1  6
 10 12  1  0
 12 13  1  6
 12 14  1  0
 14 15  1  6
 14 16  1  0
 16 17  2  0
 17 18  1  0
 17 19  1  0
 19 20  2  0
 20 21  1  0
 21 22  1  0
 20 23  1  0
 23 24  2  0
 23 25  1  0
 26 25  1  6
  3 26  1  0
 26 27  1  0
 27 28  1  6
 27 29  1  0
 29 30  1  1
 29 31  1  0
 31 32  1  1
 33 31  1  0
 33 34  1  6
 33 35  1  0
 35 36  1  0
 36 37  1  1
 36 38  1  0
 38 39  1  6
 38 40  1  0
 40 41  1  0
 33 41  1  0
 40 42  1  1
 42 43  1  0
 42 44  1  0
M  END
>  <IC50>  (19) 
0.190818745455

>  <NCGC_ID>  (19) 
NCGC00162409

>  <Name>  (19) 
Bafilomycin A1

>  <PRIMARY_MOA>  (19) 
Vacuolar H+ ATPase (V-ATPase) Inhibitors

>  <StandardizerResult>  (19) 
Tautomerize (ID: Tautomerize)
Mesomerize (ID: Mesomerize)

>  <pIC50>  (19) 
0.719378963764

$$$$
NCGC00162440
     RDKit          2D

 39 39  0  0  1  0  0  0  0  0999 V2000
    0.7145   -3.7125    0.0000 C   0  0  0  0  0  0  0  0  0  0  0  0
    0.7145   -2.8875    0.0000 C   0  0  0  0  0  0  0  0  0  0  0  0
    1.4289   -2.4750    0.0000 C   0  0  0  0  0  0  0  0  0  0  0  0
    1.4289   -1.6500    0.0000 C   0  0  0  0  0  0  0  0  0  0  0  0
    0.7145   -1.2375    0.0000 C   0  0  0  0  0  0  0  0  0  0  0  0
    0.7145   -0.4125    0.0000 C   0  0  0  0  0  0  0  0  0  0  0  0
    0.0000    0.0000    0.0000 O   0  0  0  0  0  0  0  0  0  0  0  0
    0.0000    0.8250    0.0000 C   0  0  0  0  0  0  0  0  0  0  0  0
   -0.7145    1.2375    0.0000 O   0  0  0  0  0  0  0  0  0  0  0  0
    0.7145    1.2375    0.0000 C   0  0  0  0  0  0  0  0  0  0  0  0
    1.4289    0.8250    0.0000 C   0  0  0  0  0  0  0  0  0  0  0  0
    1.4289    0.0000    0.0000 C   0  0  0  0  0  0  0  0  0  0  0  0
    2.1434   -0.4125    0.0000 C   0  0  0  0  0  0  0  0  0  0  0  0
    2.1434   -2.8875    0.0000 C   0  0  0  0  0  0  0  0  0  0  0  0
    2.8579   -2.4750    0.0000 C   0  0  0  0  0  0  0  0  0  0  0  0
    2.8579   -1.6500    0.0000 C   0  0  0  0  0  0  0  0  0  0  0  0
    3.5724   -2.8875    0.0000 C   0  0  0  0  0  0  0  0  0  0  0  0
    4.2868   -2.4750    0.0000 C   0  0  0  0  0  0  0  0  0  0  0  0
    5.0013   -2.8875    0.0000 C   0  0  0  0  0  0  0  0  0  0  0  0
    5.7158   -2.4750    0.0000 C   0  0  0  0  0  0  0  0  0  0  0  0
    5.7158   -1.6500    0.0000 C   0  0  0  0  0  0  0  0  0  0  0  0
    6.4302   -2.8875    0.0000 C   0  0  0  0  0  0  0  0  0  0  0  0
    7.1447   -2.4750    0.0000 C   0  0  0  0  0  0  0  0  0  0  0  0
    7.1447   -1.6500    0.0000 C   0  0  0  0  0  0  0  0  0  0  0  0
    7.8592   -2.8875    0.0000 C   0  0  0  0  0  0  0  0  0  0  0  0
    7.8592   -3.7125    0.0000 O   0  0  0  0  0  0  0  0  0  0  0  0
    8.5737   -2.4750    0.0000 C   0  0  0  0  0  0  0  0  0  0  0  0
    8.5737   -1.6500    0.0000 C   0  0  0  0  0  0  0  0  0  0  0  0
    9.2881   -2.8875    0.0000 C   0  0  0  0  0  0  0  0  0  0  0  0
    9.2881   -3.7125    0.0000 O   0  0  0  0  0  0  0  0  0  0  0  0
   10.0026   -2.4750    0.0000 C   0  0  0  0  0  0  0  0  0  0  0  0
   10.0026   -1.6500    0.0000 C   0  0  0  0  0  0  0  0  0  0  0  0
   10.7171   -2.8875    0.0000 C   0  0  0  0  0  0  0  0  0  0  0  0
   11.4315   -2.4750    0.0000 C   0  0  0  0  0  0  0  0  0  0  0  0
   11.4315   -1.6500    0.0000 C   0  0  0  0  0  0  0  0  0  0  0  0
   12.1460   -2.8875    0.0000 C   0  0  0  0  0  0  0  0  0  0  0  0
   12.8605   -2.4750    0.0000 C   0  0  0  0  0  0  0  0  0  0  0  0
   12.8605   -1.6500    0.0000 O   0  0  0  0  0  0  0  0  0  0  0  0
   13.5749   -2.8875    0.0000 O   0  0  0  0  0  0  0  0  0  0  0  0
  1  2  1  0
  2  3  1  0
  3  4  1  0
  4  5  2  0
  6  5  1  6
  6  7  1  0
  7  8  1  0
  8  9  2  0
  8 10  1  0
 10 11  2  0
 11 12  1  0
  6 12  1  0
 12 13  1  6
  3 14  2  0
 15 14  1  6
 15 16  1  0
 15 17  1  0
 17 18  1  0
 18 19  2  0
 19 20  1  0
 20 21  1  0
 20 22  2  0
 23 22  1  1
 23 24  1  0
 23 25  1  0
 25 26  2  0
 27 25  1  1
 27 28  1  0
 27 29  1  0
 29 30  1  1
 29 31  1  0
 31 32  1  1
 31 33  1  0
 33 34  1  0
 34 35  1  0
 34 36  2  0
 36 37  1  0
 37 38  1  0
 37 39  2  0
M  END
>  <IC50>  (20) 
4326.77811747

>  <NCGC_ID>  (20) 
NCGC00162440

>  <Name>  (20) 
Elactocin

>  <PRIMARY_MOA>  (20) 
Antineoplastic Antibiotics

>  <StandardizerResult>  (20) 
Tautomerize (ID: Tautomerize)
Mesomerize (ID: Mesomerize)

>  <pIC50>  (20) 
-3.63616462461

$$$$
NCGC00162453
     RDKit          2D

 22 22  0  0  0  0  0  0  0  0999 V2000
   -0.7145    2.0625    0.0000 C   0  0  0  0  0  0  0  0  0  0  0  0
    0.0000    2.4750    0.0000 C   0  0  0  0  0  0  0  0  0  0  0  0
    0.0000    3.3000    0.0000 C   0  0  0  0  0  0  0  0  0  0  0  0
   -0.7145    3.7125    0.0000 C   0  0  0  0  0  0  0  0  0  0  0  0
   -1.4289    3.3000    0.0000 C   0  0  0  0  0  0  0  0  0  0  0  0
   -0.7145    4.5375    0.0000 C   0  0  0  0  0  0  0  0  0  0  0  0
    0.0000    4.9500    0.0000 C   0  0  0  0  0  0  0  0  0  0  0  0
    0.0000    5.7750    0.0000 C   0  0  0  0  0  0  0  0  0  0  0  0
   -0.7145    6.1875    0.0000 O   0  0  0  0  0  0  0  0  0  0  0  0
    0.7145    6.1875    0.0000 N   0  0  0  0  0  0  0  0  0  0  0  0
    0.7145    7.0125    0.0000 O   0  0  0  0  0  0  0  0  0  0  0  0
    0.7145    2.0625    0.0000 C   0  0  0  0  0  0  0  0  0  0  0  0
    1.4289    2.4750    0.0000 O   0  0  0  0  0  0  0  0  0  0  0  0
    0.7145    1.2375    0.0000 C   0  0  0  0  0  0  0  0  0  0  0  0
    1.4289    0.8250    0.0000 C   0  0  0  0  0  0  0  0  0  0  0  0
    1.4289   -0.0000    0.0000 C   0  0  0  0  0  0  0  0  0  0  0  0
    0.7145   -0.4125    0.0000 C   0  0  0  0  0  0  0  0  0  0  0  0
    0.0000    0.0000    0.0000 C   0  0  0  0  0  0  0  0  0  0  0  0
    0.0000    0.8250    0.0000 C   0  0  0  0  0  0  0  0  0  0  0  0
    0.7145   -1.2375    0.0000 N   0  0  0  0  0  0  0  0  0  0  0  0
    1.4289   -1.6500    0.0000 C   0  0  0  0  0  0  0  0  0  0  0  0
   -0.0000   -1.6500    0.0000 C   0  0  0  0  0  0  0  0  0  0  0  0
  1  2  1  0
  2  3  2  3
  3  4  1  0
  4  5  1  0
  6  4  1  0
  6  7  2  3
  7  8  1  0
  8  9  2  0
  8 10  1  0
 10 11  1  0
  2 12  1  0
 12 13  2  0
 12 14  1  0
 14 15  2  0
 15 16  1  0
 16 17  2  0
 17 18  1  0
 18 19  2  0
 14 19  1  0
 17 20  1  0
 20 21  1  0
 20 22  1  0
M  END
>  <IC50>  (21) 
0.0563262545455

>  <NCGC_ID>  (21) 
NCGC00162453

>  <Name>  (21) 
Trichostatin A

>  <PRIMARY_MOA>  (21) 
HDAC1 Inhibitor

>  <StandardizerResult>  (21) 
Tautomerize (ID: Tautomerize)
Mesomerize (ID: Mesomerize)

>  <pIC50>  (21) 
1.24928912653

$$$$
NCGC00164591
     RDKit          2D

 21 24  0  0  1  0  0  0  0  0999 V2000
    3.8256   -0.4493    0.0000 C   0  0  0  0  0  0  0  0  0  0  0  0
    4.5141   -0.9039    0.0000 C   0  0  0  0  0  0  0  0  0  0  0  0
    3.1064   -0.8804    0.0000 C   0  0  0  0  0  0  0  0  0  0  0  0
    2.5429   -0.2609    0.0000 C   0  0  0  0  0  0  0  0  0  0  0  0
    2.6391    0.5940    0.0000 C   0  0  0  0  0  0  0  0  0  0  0  0
    1.8064    0.8267    0.0000 C   0  0  0  0  0  0  0  0  0  0  0  0
    1.2462    0.2211    0.0000 C   0  0  0  0  0  0  0  0  0  0  0  0
    1.5179    1.6168    0.0000 C   0  0  0  0  0  0  0  0  0  0  0  0
    0.7354    1.8782    0.0000 O   0  0  0  0  0  0  0  0  0  0  0  0
    0.1177    1.3313    0.0000 C   0  0  0  0  0  0  0  0  0  0  0  0
    2.2230    2.0744    0.0000 O   0  0  0  0  0  0  0  0  0  0  0  0
    3.0379    1.8038    0.0000 C   0  0  0  0  0  0  0  0  0  0  0  0
    3.9705    1.5831    0.0000 O   0  0  0  0  0  0  0  0  0  0  0  0
    4.8026    1.7960    0.0000 C   0  0  0  0  0  0  0  0  0  0  0  0
    5.4880    2.2551    0.0000 C   0  0  0  0  0  0  0  0  0  0  0  0
    5.2883    1.0982    0.0000 C   0  0  0  0  0  0  0  0  0  0  0  0
    4.7995    0.4092    0.0000 C   0  0  0  0  0  0  0  0  0  0  0  0
    3.9421    0.3980    0.0000 C   0  0  0  0  0  0  0  0  0  0  0  0
    3.3814    1.0934    0.0000 C   0  0  0  0  0  0  0  0  0  0  0  0
    3.6200    2.0443    0.0000 O   0  0  0  0  0  0  0  0  0  0  0  0
    4.3462    2.5046    0.0000 O   0  0  0  0  0  0  0  0  0  0  0  0
  1  2  1  6
  1  3  1  0
  3  4  1  0
  5  4  1  1
  5  6  1  0
  6  7  1  1
  6  8  1  0
  8  9  1  1
  9 10  1  0
  8 11  1  0
 12 11  1  6
 12 13  1  0
 13 14  1  0
 14 15  1  1
 14 16  1  0
 16 17  1  0
 18 17  1  1
  1 18  1  0
 18 19  1  0
  5 19  1  0
 12 19  1  0
 19 20  1  6
 20 21  1  0
 14 21  1  0
M  END
>  <IC50>  (22) 
0.0163629090909

>  <NCGC_ID>  (22) 
NCGC00164591

>  <Name>  (22) 
Artemether

>  <PRIMARY_MOA>  (22) 
antimalarial agents

>  <StandardizerResult>  (22) 
Remove Explicit Hydrogens (ID: RemoveExplicitH)
Tautomerize (ID: Tautomerize)
Mesomerize (ID: Mesomerize)

>  <pIC50>  (22) 
1.78613948246

$$$$
NCGC00164600
     RDKit          2D

 27 30  0  0  1  0  0  0  0  0999 V2000
   -4.2203   -0.2501    0.0000 O   0  0  0  0  0  0  0  0  0  0  0  0
   -3.6078    0.3025    0.0000 C   0  0  0  0  0  0  0  0  0  0  0  0
   -3.7801    1.1093    0.0000 O   0  0  0  0  0  0  0  0  0  0  0  0
   -2.8229    0.0484    0.0000 C   0  0  0  0  0  0  0  0  0  0  0  0
   -2.2103    0.6010    0.0000 C   0  0  0  0  0  0  0  0  0  0  0  0
   -1.4255    0.3468    0.0000 C   0  0  0  0  0  0  0  0  0  0  0  0
   -0.8129    0.8994    0.0000 O   0  0  0  0  0  0  0  0  0  0  0  0
   -0.0280    0.6452    0.0000 C   0  0  0  0  0  0  0  0  0  0  0  0
    0.6816    1.0988    0.0000 O   0  0  0  0  0  0  0  0  0  0  0  0
    1.5099    0.8019    0.0000 C   0  0  0  0  0  0  0  0  0  0  0  0
    1.8396    0.0713    0.0000 C   0  0  0  0  0  0  0  0  0  0  0  0
    2.0883    1.0022    0.0000 O   0  0  0  0  0  0  0  0  0  0  0  0
    2.7583    1.5367    0.0000 O   0  0  0  0  0  0  0  0  0  0  0  0
    3.2581    0.8370    0.0000 C   0  0  0  0  0  0  0  0  0  0  0  0
    3.9285    1.3178    0.0000 C   0  0  0  0  0  0  0  0  0  0  0  0
    2.4452    0.5518    0.0000 O   0  0  0  0  0  0  0  0  0  0  0  0
    2.4195   -0.6234    0.0000 C   0  0  0  0  0  0  0  0  0  0  0  0
    3.2778   -0.5666    0.0000 C   0  0  0  0  0  0  0  0  0  0  0  0
    3.7619    0.1372    0.0000 C   0  0  0  0  0  0  0  0  0  0  0  0
    1.0997   -0.4197    0.0000 C   0  0  0  0  0  0  0  0  0  0  0  0
    1.0116   -1.2608    0.0000 C   0  0  0  0  0  0  0  0  0  0  0  0
    1.5621   -1.8778    0.0000 C   0  0  0  0  0  0  0  0  0  0  0  0
    2.2958   -1.4725    0.0000 C   0  0  0  0  0  0  0  0  0  0  0  0
    2.9742   -1.9420    0.0000 C   0  0  0  0  0  0  0  0  0  0  0  0
    0.2837   -0.1452    0.0000 C   0  0  0  0  0  0  0  0  0  0  0  0
   -0.2845   -0.7433    0.0000 C   0  0  0  0  0  0  0  0  0  0  0  0
   -1.2532   -0.4600    0.0000 O   0  0  0  0  0  0  0  0  0  0  0  0
  1  2  2  0
  2  3  1  0
  2  4  1  0
  4  5  1  0
  5  6  1  0
  6  7  1  0
  8  7  1  1
  8  9  1  0
 10  9  1  1
 10 11  1  0
 11 12  1  6
 12 13  1  0
 13 14  1  0
 14 15  1  1
 14 16  1  0
 10 16  1  0
 11 17  1  0
 17 18  1  1
 18 19  1  0
 14 19  1  0
 11 20  1  0
 20 21  1  1
 21 22  1  0
 22 23  1  0
 17 23  1  0
 23 24  1  6
 20 25  1  0
  8 25  1  0
 25 26  1  1
  6 27  2  0
M  END
>  <IC50>  (23) 
0.0101640181818

>  <NCGC_ID>  (23) 
NCGC00164600

>  <Name>  (23) 
Artesunate

>  <PRIMARY_MOA>  (23) 
antimalarial agents

>  <StandardizerResult>  (23) 
Remove Explicit Hydrogens (ID: RemoveExplicitH)
Tautomerize (ID: Tautomerize)
Mesomerize (ID: Mesomerize)

>  <pIC50>  (23) 
1.99293456674

$$$$
NCGC00167490
     RDKit          2D

 35 38  0  0  0  0  0  0  0  0999 V2000
   -3.7852   -2.8510    0.0000 C   0  0  0  0  0  0  0  0  0  0  0  0
   -3.5151   -3.6305    0.0000 C   0  0  0  0  0  0  0  0  0  0  0  0
   -2.7050   -3.7864    0.0000 C   0  0  0  0  0  0  0  0  0  0  0  0
   -2.4350   -4.5660    0.0000 C   0  0  0  0  0  0  0  0  0  0  0  0
   -1.6248   -4.7219    0.0000 N   0  0  0  0  0  0  0  0  0  0  0  0
   -1.0847   -4.0983    0.0000 C   0  0  0  0  0  0  0  0  0  0  0  0
   -0.2746   -4.2542    0.0000 C   0  0  0  0  0  0  0  0  0  0  0  0
    0.2655   -3.6305    0.0000 C   0  0  0  0  0  0  0  0  0  0  0  0
    1.0756   -3.7864    0.0000 C   0  0  0  0  0  0  0  0  0  0  0  0
   -1.3548   -5.5014    0.0000 C   0  0  0  0  0  0  0  0  0  0  0  0
   -0.5446   -5.6574    0.0000 C   0  0  0  0  0  0  0  0  0  0  0  0
   -0.0046   -5.0337    0.0000 O   0  0  0  0  0  0  0  0  0  0  0  0
   -0.2746   -6.4369    0.0000 C   0  0  0  0  0  0  0  0  0  0  0  0
    0.5355   -6.5928    0.0000 C   0  0  0  0  0  0  0  0  0  0  0  0
    1.1935   -6.0951    0.0000 C   0  0  0  0  0  0  0  0  0  0  0  0
    1.2639   -5.2731    0.0000 C   0  0  0  0  0  0  0  0  0  0  0  0
    2.0109   -4.9231    0.0000 C   0  0  0  0  0  0  0  0  0  0  0  0
    2.6876   -5.3950    0.0000 C   0  0  0  0  0  0  0  0  0  0  0  0
    3.4346   -5.0449    0.0000 Cl  0  0  0  0  0  0  0  0  0  0  0  0
    2.6172   -6.2170    0.0000 C   0  0  0  0  0  0  0  0  0  0  0  0
    1.8702   -6.5670    0.0000 C   0  0  0  0  0  0  0  0  0  0  0  0
    1.6304   -7.3564    0.0000 C   0  0  0  0  0  0  0  0  0  0  0  0
    2.1281   -8.0144    0.0000 C   0  0  0  0  0  0  0  0  0  0  0  0
    1.8072   -8.7744    0.0000 C   0  0  0  0  0  0  0  0  0  0  0  0
    2.3049   -9.4323    0.0000 C   0  0  0  0  0  0  0  0  0  0  0  0
    1.9840  -10.1924    0.0000 C   0  0  0  0  0  0  0  0  0  0  0  0
    1.1653  -10.2944    0.0000 C   0  0  0  0  0  0  0  0  0  0  0  0
    0.8444  -11.0544    0.0000 Cl  0  0  0  0  0  0  0  0  0  0  0  0
    0.6676   -9.6365    0.0000 C   0  0  0  0  0  0  0  0  0  0  0  0
    0.9885   -8.8765    0.0000 C   0  0  0  0  0  0  0  0  0  0  0  0
    0.8056   -7.3724    0.0000 C   0  0  0  0  0  0  0  0  0  0  0  0
    0.2655   -7.9960    0.0000 C   0  0  0  0  0  0  0  0  0  0  0  0
   -0.5446   -7.8401    0.0000 C   0  0  0  0  0  0  0  0  0  0  0  0
   -0.8147   -7.0605    0.0000 C   0  0  0  0  0  0  0  0  0  0  0  0
   -1.0847   -8.4637    0.0000 Cl  0  0  0  0  0  0  0  0  0  0  0  0
  1  2  1  0
  2  3  1  0
  3  4  1  0
  4  5  1  0
  5  6  1  0
  6  7  1  0
  7  8  1  0
  8  9  1  0
  5 10  1  0
 10 11  1  0
 11 12  1  0
 11 13  1  0
 13 14  2  0
 14 15  1  0
 15 16  2  0
 16 17  1  0
 17 18  2  0
 18 19  1  0
 18 20  1  0
 20 21  2  0
 15 21  1  0
 21 22  1  0
 22 23  2  0
 23 24  1  0
 24 25  2  0
 25 26  1  0
 26 27  2  0
 27 28  1  0
 27 29  1  0
 29 30  2  0
 24 30  1  0
 22 31  1  0
 14 31  1  0
 31 32  2  0
 32 33  1  0
 33 34  2  0
 13 34  1  0
 33 35  1  0
M  END
>  <IC50>  (24) 
0.00818212727273

>  <NCGC_ID>  (24) 
NCGC00167490

>  <Name>  (24) 
Lumefantrine

>  <PRIMARY_MOA>  (24) 
antimalarial agents

>  <StandardizerResult>  (24) 
Tautomerize (ID: Tautomerize)
Mesomerize (ID: Mesomerize)

>  <pIC50>  (24) 
2.08713376935

$$$$
NCGC00179250
     RDKit          2D

 33 35  0  0  0  0  0  0  0  0999 V2000
    5.4457    3.7873    0.0000 C   0  0  0  0  0  0  0  0  0  0  0  0
    6.2559    3.6314    0.0000 C   0  0  0  0  0  0  0  0  0  0  0  0
    6.5259    2.8518    0.0000 C   0  0  0  0  0  0  0  0  0  0  0  0
    7.3360    2.6959    0.0000 C   0  0  0  0  0  0  0  0  0  0  0  0
    7.6061    1.9164    0.0000 N   0  0  0  0  0  0  0  0  0  0  0  0
    7.0660    1.2927    0.0000 C   0  0  0  0  0  0  0  0  0  0  0  0
    6.2559    1.4486    0.0000 C   0  0  0  0  0  0  0  0  0  0  0  0
    5.7158    0.8250    0.0000 C   0  0  0  0  0  0  0  0  0  0  0  0
    4.9056    0.9809    0.0000 C   0  0  0  0  0  0  0  0  0  0  0  0
    8.4162    1.7605    0.0000 C   0  0  0  0  0  0  0  0  0  0  0  0
    8.6863    0.9809    0.0000 C   0  0  0  0  0  0  0  0  0  0  0  0
    9.4964    0.8250    0.0000 C   0  0  0  0  0  0  0  0  0  0  0  0
   10.0365    1.4486    0.0000 O   0  0  0  0  0  0  0  0  0  0  0  0
    9.7664    0.0454    0.0000 C   0  0  0  0  0  0  0  0  0  0  0  0
   10.5766   -0.1105    0.0000 C   0  0  0  0  0  0  0  0  0  0  0  0
   11.1167    0.5132    0.0000 C   0  0  0  0  0  0  0  0  0  0  0  0
   11.9268    0.3573    0.0000 C   0  0  0  0  0  0  0  0  0  0  0  0
   12.1968   -0.4223    0.0000 C   0  0  0  0  0  0  0  0  0  0  0  0
   11.6567   -1.0459    0.0000 C   0  0  0  0  0  0  0  0  0  0  0  0
   10.8466   -0.8900    0.0000 C   0  0  0  0  0  0  0  0  0  0  0  0
   10.3065   -1.5137    0.0000 C   0  0  0  0  0  0  0  0  0  0  0  0
   10.5766   -2.2932    0.0000 C   0  0  0  0  0  0  0  0  0  0  0  0
   10.0365   -2.9168    0.0000 C   0  0  0  0  0  0  0  0  0  0  0  0
   10.3065   -3.6964    0.0000 Cl  0  0  0  0  0  0  0  0  0  0  0  0
    9.2263   -2.7609    0.0000 C   0  0  0  0  0  0  0  0  0  0  0  0
    8.9563   -1.9814    0.0000 C   0  0  0  0  0  0  0  0  0  0  0  0
    8.1462   -1.8255    0.0000 Cl  0  0  0  0  0  0  0  0  0  0  0  0
    9.4964   -1.3577    0.0000 C   0  0  0  0  0  0  0  0  0  0  0  0
    9.2263   -0.5782    0.0000 C   0  0  0  0  0  0  0  0  0  0  0  0
   13.0070   -0.5782    0.0000 C   0  0  0  0  0  0  0  0  0  0  0  0
   13.8171   -0.7341    0.0000 F   0  0  0  0  0  0  0  0  0  0  0  0
   12.8511   -1.3883    0.0000 F   0  0  0  0  0  0  0  0  0  0  0  0
   13.1629    0.2319    0.0000 F   0  0  0  0  0  0  0  0  0  0  0  0
  1  2  1  0
  2  3  1  0
  3  4  1  0
  4  5  1  0
  5  6  1  0
  6  7  1  0
  7  8  1  0
  8  9  1  0
  5 10  1  0
 10 11  1  0
 11 12  1  0
 12 13  1  0
 12 14  1  0
 14 15  2  0
 15 16  1  0
 16 17  2  0
 17 18  1  0
 18 19  2  0
 19 20  1  0
 15 20  1  0
 20 21  2  0
 21 22  1  0
 22 23  2  0
 23 24  1  0
 23 25  1  0
 25 26  2  0
 26 27  1  0
 26 28  1  0
 21 28  1  0
 28 29  2  0
 14 29  1  0
 18 30  1  0
 30 31  1  0
 30 32  1  0
 30 33  1  0
M  END
>  <IC50>  (25) 
0.000664925925926

>  <NCGC_ID>  (25) 
NCGC00179250

>  <Name>  (25) 
Halofantrine

>  <PRIMARY_MOA>  (25) 
antimalarial agents

>  <StandardizerResult>  (25) 
Tautomerize (ID: Tautomerize)
Mesomerize (ID: Mesomerize)

>  <pIC50>  (25) 
3.17722673327

$$$$
NCGC00179454
     RDKit          2D

 47 51  0  0  1  0  0  0  0  0999 V2000
   -1.8291   -1.5890    0.0000 C   0  0  0  0  0  0  0  0  0  0  0  0
   -2.3811   -0.9759    0.0000 C   0  0  0  0  0  0  0  0  0  0  0  0
   -2.1262   -0.1913    0.0000 C   0  0  0  0  0  0  0  0  0  0  0  0
   -2.0400    0.6292    0.0000 C   0  0  0  0  0  0  0  0  0  0  0  0
   -1.2330    0.8007    0.0000 C   0  0  0  0  0  0  0  0  0  0  0  0
   -0.8205    0.0862    0.0000 C   0  0  0  0  0  0  0  0  0  0  0  0
   -1.3725   -0.5269    0.0000 O   0  0  0  0  0  0  0  0  0  0  0  0
   -0.0000    0.0000    0.0000 C   0  0  0  0  0  0  0  0  0  0  0  0
   -0.1715   -0.8070    0.0000 C   0  0  0  0  0  0  0  0  0  0  0  0
   -0.0000    0.8250    0.0000 C   0  0  0  0  0  0  0  0  0  0  0  0
    0.7846    1.0799    0.0000 C   0  0  0  0  0  0  0  0  0  0  0  0
    1.2695    0.4125    0.0000 C   0  0  0  0  0  0  0  0  0  0  0  0
    1.6820    1.1270    0.0000 C   0  0  0  0  0  0  0  0  0  0  0  0
    2.5070    1.1270    0.0000 C   0  0  0  0  0  0  0  0  0  0  0  0
    2.9195    1.8414    0.0000 O   0  0  0  0  0  0  0  0  0  0  0  0
    2.9195    0.4125    0.0000 C   0  0  0  0  0  0  0  0  0  0  0  0
    3.7445    0.4125    0.0000 C   0  0  0  0  0  0  0  0  0  0  0  0
    2.5070   -0.3020    0.0000 C   0  0  0  0  0  0  0  0  0  0  0  0
    1.6820   -0.3020    0.0000 O   0  0  0  0  0  0  0  0  0  0  0  0
    2.9195   -1.0164    0.0000 C   0  0  0  0  0  0  0  0  0  0  0  0
    2.5070   -1.7309    0.0000 C   0  0  0  0  0  0  0  0  0  0  0  0
    3.7445   -1.0164    0.0000 C   0  0  0  0  0  0  0  0  0  0  0  0
    4.1570   -0.3020    0.0000 O   0  0  0  0  0  0  0  0  0  0  0  0
    4.9820   -0.3020    0.0000 C   0  0  0  0  0  0  0  0  0  0  0  0
    4.1570   -1.7309    0.0000 C   0  0  0  0  0  0  0  0  0  0  0  0
    3.7445   -2.4454    0.0000 C   0  0  0  0  0  0  0  0  0  0  0  0
    4.9820   -1.7309    0.0000 C   0  0  0  0  0  0  0  0  0  0  0  0
    5.3945   -2.4454    0.0000 O   0  0  0  0  0  0  0  0  0  0  0  0
    5.3945   -1.0164    0.0000 O   0  0  0  0  0  0  0  0  0  0  0  0
    0.7846   -0.2549    0.0000 O   0  0  0  0  0  0  0  0  0  0  0  0
   -2.9332   -0.0198    0.0000 C   0  0  0  0  0  0  0  0  0  0  0  0
   -3.5463   -0.5718    0.0000 O   0  0  0  0  0  0  0  0  0  0  0  0
   -4.2607   -0.1593    0.0000 C   0  0  0  0  0  0  0  0  0  0  0  0
   -4.0892    0.6477    0.0000 C   0  0  0  0  0  0  0  0  0  0  0  0
   -3.2687    0.7339    0.0000 C   0  0  0  0  0  0  0  0  0  0  0  0
   -2.8562    1.4484    0.0000 C   0  0  0  0  0  0  0  0  0  0  0  0
   -5.0144   -0.4949    0.0000 C   0  0  0  0  0  0  0  0  0  0  0  0
   -5.1006   -1.3153    0.0000 O   0  0  0  0  0  0  0  0  0  0  0  0
   -5.8543   -1.6509    0.0000 C   0  0  0  0  0  0  0  0  0  0  0  0
   -5.3930   -2.3349    0.0000 O   0  0  0  0  0  0  0  0  0  0  0  0
   -6.4478   -2.2240    0.0000 C   0  0  0  0  0  0  0  0  0  0  0  0
   -6.2482   -3.0245    0.0000 O   0  0  0  0  0  0  0  0  0  0  0  0
   -6.5218   -1.1660    0.0000 C   0  0  0  0  0  0  0  0  0  0  0  0
   -7.2754   -1.5015    0.0000 C   0  0  0  0  0  0  0  0  0  0  0  0
   -6.4355   -0.3455    0.0000 C   0  0  0  0  0  0  0  0  0  0  0  0
   -5.6818   -0.0099    0.0000 C   0  0  0  0  0  0  0  0  0  0  0  0
   -5.5956    0.8105    0.0000 C   0  0  0  0  0  0  0  0  0  0  0  0
  1  2  1  0
  3  2  1  1
  3  4  1  0
  4  5  1  0
  6  5  1  6
  6  7  1  0
  3  7  1  0
  6  8  1  0
  8  9  1  1
  8 10  1  0
 10 11  1  0
 12 11  1  1
 12 13  1  0
 13 14  1  0
 14 15  1  6
 14 16  1  0
 16 17  1  1
 16 18  1  0
 18 19  1  1
 12 19  1  0
 18 20  1  0
 20 21  1  6
 20 22  1  0
 22 23  1  1
 23 24  1  0
 22 25  1  0
 25 26  1  1
 25 27  1  0
 27 28  1  0
 27 29  2  0
 12 30  1  0
  8 30  1  0
  3 31  1  0
 31 32  1  6
 33 32  1  1
 33 34  1  0
 34 35  1  0
 31 35  1  0
 35 36  1  6
 33 37  1  0
 37 38  1  1
 38 39  1  0
 39 40  1  6
 39 41  1  0
 41 42  1  0
 39 43  1  0
 43 44  1  6
 43 45  1  0
 45 46  1  0
 37 46  1  0
 46 47  1  6
M  END
>  <IC50>  (26) 
0.00191603636364

>  <NCGC_ID>  (26) 
NCGC00179454

>  <Name>  (26) 
Monensin sodium salt

>  <PRIMARY_MOA>  (26) 
Polyether Antibiotic

>  <StandardizerResult>  (26) 
Neutralize (ID: Neutralize)
Tautomerize (ID: Tautomerize)
Mesomerize (ID: Mesomerize)

>  <pIC50>  (26) 
2.71759625289

$$$$
NCGC00179536
     RDKit          2D

 59 63  0  0  1  0  0  0  0  0999 V2000
    1.6207   -1.6146    0.0000 C   0  0  0  0  0  0  0  0  0  0  0  0
    2.4315   -1.4624    0.0000 O   0  0  0  0  0  0  0  0  0  0  0  0
    2.7051   -0.6841    0.0000 C   0  0  0  0  0  0  0  0  0  0  0  0
    1.9627   -0.3146    0.0000 C   0  0  0  0  0  0  0  0  0  0  0  0
    1.3233    0.2279    0.0000 C   0  0  0  0  0  0  0  0  0  0  0  0
    0.7498    0.8624    0.0000 O   0  0  0  0  0  0  0  0  0  0  0  0
    0.6937    1.7234    0.0000 C   0  0  0  0  0  0  0  0  0  0  0  0
    0.1961    2.3814    0.0000 C   0  0  0  0  0  0  0  0  0  0  0  0
    1.4710    1.4474    0.0000 O   0  0  0  0  0  0  0  0  0  0  0  0
    2.0255    2.0495    0.0000 C   0  0  0  0  0  0  0  0  0  0  0  0
    2.8643    1.9932    0.0000 C   0  0  0  0  0  0  0  0  0  0  0  0
    3.2483    1.2631    0.0000 C   0  0  0  0  0  0  0  0  0  0  0  0
    3.2852    2.7026    0.0000 C   0  0  0  0  0  0  0  0  0  0  0  0
    2.8955    3.4428    0.0000 C   0  0  0  0  0  0  0  0  0  0  0  0
    3.3511    4.1374    0.0000 C   0  0  0  0  0  0  0  0  0  0  0  0
    3.0354    4.8972    0.0000 C   0  0  0  0  0  0  0  0  0  0  0  0
    3.8466    5.1958    0.0000 N   0  0  0  0  0  0  0  0  0  0  0  0
    4.6946    5.2390    0.0000 C   0  0  0  0  0  0  0  0  0  0  0  0
    4.8221    6.0541    0.0000 O   0  0  0  0  0  0  0  0  0  0  0  0
    5.5126    4.9298    0.0000 C   0  0  0  0  0  0  0  0  0  0  0  0
    6.1814    4.3747    0.0000 C   0  0  0  0  0  0  0  0  0  0  0  0
    6.6702    3.6368    0.0000 C   0  0  0  0  0  0  0  0  0  0  0  0
    6.9190    2.8456    0.0000 C   0  0  0  0  0  0  0  0  0  0  0  0
    6.9536    2.0157    0.0000 C   0  0  0  0  0  0  0  0  0  0  0  0
    7.7753    1.9418    0.0000 C   0  0  0  0  0  0  0  0  0  0  0  0
    6.7719    1.2075    0.0000 C   0  0  0  0  0  0  0  0  0  0  0  0
    7.5464    0.9230    0.0000 O   0  0  0  0  0  0  0  0  0  0  0  0
    6.3873    0.4739    0.0000 C   0  0  0  0  0  0  0  0  0  0  0  0
    7.0617   -0.0013    0.0000 C   0  0  0  0  0  0  0  0  0  0  0  0
    5.8258   -0.1352    0.0000 C   0  0  0  0  0  0  0  0  0  0  0  0
    6.3543   -0.7687    0.0000 O   0  0  0  0  0  0  0  0  0  0  0  0
    5.1261   -0.5781    0.0000 C   0  0  0  0  0  0  0  0  0  0  0  0
    5.4726   -1.3268    0.0000 C   0  0  0  0  0  0  0  0  0  0  0  0
    4.3361   -0.8249    0.0000 C   0  0  0  0  0  0  0  0  0  0  0  0
    4.4776   -1.6377    0.0000 O   0  0  0  0  0  0  0  0  0  0  0  0
    5.2522   -1.9215    0.0000 C   0  0  0  0  0  0  0  0  0  0  0  0
    5.3937   -2.7343    0.0000 C   0  0  0  0  0  0  0  0  0  0  0  0
    5.8853   -1.3926    0.0000 O   0  0  0  0  0  0  0  0  0  0  0  0
    3.5109   -0.8595    0.0000 C   0  0  0  0  0  0  0  0  0  0  0  0
    3.4398   -1.6815    0.0000 C   0  0  0  0  0  0  0  0  0  0  0  0
    5.9276    5.6428    0.0000 C   0  0  0  0  0  0  0  0  0  0  0  0
    2.1964    4.9320    0.0000 C   0  0  0  0  0  0  0  0  0  0  0  0
    1.7211    4.2767    0.0000 C   0  0  0  0  0  0  0  0  0  0  0  0
    0.9014    4.3700    0.0000 O   0  0  0  0  0  0  0  0  0  0  0  0
    2.0498    3.5017    0.0000 C   0  0  0  0  0  0  0  0  0  0  0  0
    1.5871    2.7641    0.0000 C   0  0  0  0  0  0  0  0  0  0  0  0
    0.7626    2.5669    0.0000 C   0  0  0  0  0  0  0  0  0  0  0  0
    0.1363    3.1040    0.0000 O   0  0  0  0  0  0  0  0  0  0  0  0
    1.8369    5.6746    0.0000 C   0  0  0  0  0  0  0  0  0  0  0  0
    2.3002    6.3572    0.0000 N   0  0  0  0  0  0  0  0  0  0  0  0
    1.9407    7.0997    0.0000 N   0  0  0  0  0  0  0  0  0  0  0  0
    1.1179    7.1596    0.0000 C   0  0  0  0  0  0  0  0  0  0  0  0
    0.7584    7.9022    0.0000 C   0  0  0  0  0  0  0  0  0  0  0  0
    1.2217    8.5848    0.0000 N   0  0  0  0  0  0  0  0  0  0  0  0
    0.8621    9.3274    0.0000 C   0  0  0  0  0  0  0  0  0  0  0  0
    2.0445    8.5249    0.0000 C   0  0  0  0  0  0  0  0  0  0  0  0
    2.4040    7.7823    0.0000 C   0  0  0  0  0  0  0  0  0  0  0  0
    4.1725    4.0605    0.0000 O   0  0  0  0  0  0  0  0  0  0  0  0
    4.1099    2.6816    0.0000 O   0  0  0  0  0  0  0  0  0  0  0  0
  1  2  1  0
  3  2  1  1
  3  4  1  0
  4  5  2  0
  5  6  1  0
  6  7  1  0
  7  8  1  1
  7  9  1  0
  9 10  1  0
 10 11  2  0
 11 12  1  0
 11 13  1  0
 13 14  2  0
 14 15  1  0
 15 16  2  0
 16 17  1  0
 17 18  1  0
 18 19  2  0
 18 20  1  0
 20 21  2  0
 21 22  1  0
 22 23  2  0
 23 24  1  0
 24 25  1  6
 24 26  1  0
 26 27  1  6
 26 28  1  0
 28 29  1  1
 28 30  1  0
 30 31  1  1
 30 32  1  0
 32 33  1  1
 32 34  1  0
 34 35  1  6
 35 36  1  0
 36 37  1  0
 36 38  2  0
 34 39  1  0
  3 39  1  0
 39 40  1  6
 20 41  1  0
 16 42  1  0
 42 43  2  0
 43 44  1  0
 43 45  1  0
 14 45  1  0
 45 46  2  0
 10 46  1  0
 46 47  1  0
  7 47  1  0
 47 48  2  0
 42 49  1  0
 49 50  2  0
 50 51  1  0
 51 52  1  0
 52 53  1  0
 53 54  1  0
 54 55  1  0
 54 56  1  0
 56 57  1  0
 51 57  1  0
 15 58  1  0
 13 59  1  0
M  END
>  <IC50>  (27) 
0.1545282

>  <NCGC_ID>  (27) 
NCGC00179536

>  <Name>  (27) 
Rifampicin

>  <PRIMARY_MOA>  (27) 
growth inh

>  <StandardizerResult>  (27) 
Tautomerize (ID: Tautomerize)
Mesomerize (ID: Mesomerize)

>  <pIC50>  (27) 
0.810992254188

$$$$
NCGC00183285
     RDKit          2D

 39 43  0  0  0  0  0  0  0  0999 V2000
   -3.5724   -7.8375    0.0000 C   0  0  0  0  0  0  0  0  0  0  0  0
   -3.5724   -8.6625    0.0000 C   0  0  0  0  0  0  0  0  0  0  0  0
   -2.9049   -9.1474    0.0000 C   0  0  0  0  0  0  0  0  0  0  0  0
   -3.1599   -9.9320    0.0000 N   0  0  0  0  0  0  0  0  0  0  0  0
   -3.9849   -9.9320    0.0000 C   0  0  0  0  0  0  0  0  0  0  0  0
   -4.2398   -9.1474    0.0000 N   0  0  0  0  0  0  0  0  0  0  0  0
   -2.6749  -10.5995    0.0000 C   0  0  0  0  0  0  0  0  0  0  0  0
   -1.8545  -10.5132    0.0000 C   0  0  0  0  0  0  0  0  0  0  0  0
   -1.3695  -11.1807    0.0000 C   0  0  0  0  0  0  0  0  0  0  0  0
   -1.7051  -11.9344    0.0000 C   0  0  0  0  0  0  0  0  0  0  0  0
   -2.5256  -12.0206    0.0000 C   0  0  0  0  0  0  0  0  0  0  0  0
   -3.0105  -11.3532    0.0000 C   0  0  0  0  0  0  0  0  0  0  0  0
   -2.8611  -12.7743    0.0000 N   0  0  0  0  0  0  0  0  0  0  0  0
   -2.3762  -13.4417    0.0000 C   0  0  0  0  0  0  0  0  0  0  0  0
   -1.5557  -13.3555    0.0000 O   0  0  0  0  0  0  0  0  0  0  0  0
   -2.7118  -14.1954    0.0000 C   0  0  0  0  0  0  0  0  0  0  0  0
   -2.2268  -14.8628    0.0000 C   0  0  0  0  0  0  0  0  0  0  0  0
   -2.5624  -15.6165    0.0000 C   0  0  0  0  0  0  0  0  0  0  0  0
   -3.3829  -15.7027    0.0000 C   0  0  0  0  0  0  0  0  0  0  0  0
   -3.7184  -16.4564    0.0000 C   0  0  0  0  0  0  0  0  0  0  0  0
   -3.8678  -15.0353    0.0000 C   0  0  0  0  0  0  0  0  0  0  0  0
   -3.5322  -14.2816    0.0000 C   0  0  0  0  0  0  0  0  0  0  0  0
   -2.0775  -16.2839    0.0000 N   0  0  0  0  0  0  0  0  0  0  0  0
   -2.4130  -17.0376    0.0000 C   0  0  0  0  0  0  0  0  0  0  0  0
   -1.9281  -17.7051    0.0000 N   0  0  0  0  0  0  0  0  0  0  0  0
   -2.2637  -18.4587    0.0000 C   0  0  0  0  0  0  0  0  0  0  0  0
   -3.0841  -18.5450    0.0000 C   0  0  0  0  0  0  0  0  0  0  0  0
   -3.5691  -17.8775    0.0000 C   0  0  0  0  0  0  0  0  0  0  0  0
   -3.2335  -17.1239    0.0000 N   0  0  0  0  0  0  0  0  0  0  0  0
   -1.7787  -19.1262    0.0000 C   0  0  0  0  0  0  0  0  0  0  0  0
   -0.9583  -19.0399    0.0000 C   0  0  0  0  0  0  0  0  0  0  0  0
   -0.4733  -19.7074    0.0000 C   0  0  0  0  0  0  0  0  0  0  0  0
   -0.8089  -20.4610    0.0000 C   0  0  0  0  0  0  0  0  0  0  0  0
   -1.6294  -20.5473    0.0000 N   0  0  0  0  0  0  0  0  0  0  0  0
   -2.1143  -19.8798    0.0000 C   0  0  0  0  0  0  0  0  0  0  0  0
   -0.5490  -11.0945    0.0000 C   0  0  0  0  0  0  0  0  0  0  0  0
    0.2714  -11.0082    0.0000 F   0  0  0  0  0  0  0  0  0  0  0  0
   -0.4628  -11.9149    0.0000 F   0  0  0  0  0  0  0  0  0  0  0  0
   -0.6353  -10.2740    0.0000 F   0  0  0  0  0  0  0  0  0  0  0  0
  1  2  1  0
  2  3  2  0
  3  4  1  0
  4  5  1  0
  5  6  2  0
  2  6  1  0
  4  7  1  0
  7  8  2  0
  8  9  1  0
  9 10  2  0
 10 11  1  0
 11 12  2  0
  7 12  1  0
 11 13  1  0
 13 14  1  0
 14 15  2  0
 14 16  1  0
 16 17  2  0
 17 18  1  0
 18 19  2  0
 19 20  1  0
 19 21  1  0
 21 22  2  0
 16 22  1  0
 18 23  1  0
 23 24  1  0
 24 25  2  0
 25 26  1  0
 26 27  2  0
 27 28  1  0
 28 29  2  0
 24 29  1  0
 26 30  1  0
 30 31  2  0
 31 32  1  0
 32 33  2  0
 33 34  1  0
 34 35  2  0
 30 35  1  0
  9 36  1  0
 36 37  1  0
 36 38  1  0
 36 39  1  0
M  END
>  <IC50>  (28) 
8.52894454545

>  <NCGC_ID>  (28) 
NCGC00183285

>  <Name>  (28) 
Nilotinib

>  <PRIMARY_MOA>  (28) 
Bcr-Abl Kinase Inhibitor

>  <StandardizerResult>  (28) 
Tautomerize (ID: Tautomerize)
Mesomerize (ID: Mesomerize)

>  <pIC50>  (28) 
-0.93089529067

$$$$
NCGC00185850
     RDKit          2D

 36 40  0  0  0  0  0  0  0  0999 V2000
    0.0000   -2.4750    0.0000 C   0  0  0  0  0  0  0  0  0  0  0  0
    0.0000   -1.6500    0.0000 O   0  0  0  0  0  0  0  0  0  0  0  0
    0.7145   -1.2375    0.0000 C   0  0  0  0  0  0  0  0  0  0  0  0
    0.7145   -0.4125    0.0000 C   0  0  0  0  0  0  0  0  0  0  0  0
    0.0000    0.0000    0.0000 O   0  0  0  0  0  0  0  0  0  0  0  0
    0.0000    0.8250    0.0000 C   0  0  0  0  0  0  0  0  0  0  0  0
    1.4289    0.0000    0.0000 C   0  0  0  0  0  0  0  0  0  0  0  0
    2.1434   -0.4125    0.0000 C   0  0  0  0  0  0  0  0  0  0  0  0
    2.8579    0.0000    0.0000 C   0  0  0  0  0  0  0  0  0  0  0  0
    3.5724   -0.4125    0.0000 N   0  0  0  0  0  0  0  0  0  0  0  0
    3.5724   -1.2375    0.0000 C   0  0  0  0  0  0  0  0  0  0  0  0
    2.8579   -1.6500    0.0000 N   0  0  0  0  0  0  0  0  0  0  0  0
    2.1434   -1.2375    0.0000 C   0  0  0  0  0  0  0  0  0  0  0  0
    1.4289   -1.6500    0.0000 C   0  0  0  0  0  0  0  0  0  0  0  0
    4.2868   -1.6500    0.0000 N   0  0  0  0  0  0  0  0  0  0  0  0
    4.9685   -1.1853    0.0000 C   0  0  0  0  0  0  0  0  0  0  0  0
    5.7568   -1.4284    0.0000 C   0  0  0  0  0  0  0  0  0  0  0  0
    6.0582   -2.1964    0.0000 C   0  0  0  0  0  0  0  0  0  0  0  0
    5.6457   -2.9109    0.0000 N   0  0  0  0  0  0  0  0  0  0  0  0
    6.1105   -3.5925    0.0000 C   0  0  0  0  0  0  0  0  0  0  0  0
    4.8299   -3.0338    0.0000 C   0  0  0  0  0  0  0  0  0  0  0  0
    4.2252   -2.4727    0.0000 C   0  0  0  0  0  0  0  0  0  0  0  0
    2.8579    0.8250    0.0000 N   0  0  0  0  0  0  0  0  0  0  0  0
    3.5724    1.2375    0.0000 C   0  0  0  0  0  0  0  0  0  0  0  0
    3.5724    2.0625    0.0000 C   0  0  0  0  0  0  0  0  0  0  0  0
    4.2868    2.4750    0.0000 C   0  0  0  0  0  0  0  0  0  0  0  0
    5.0013    2.0625    0.0000 N   0  0  0  0  0  0  0  0  0  0  0  0
    5.0013    1.2375    0.0000 C   0  0  0  0  0  0  0  0  0  0  0  0
    4.2868    0.8250    0.0000 C   0  0  0  0  0  0  0  0  0  0  0  0
    5.7158    2.4750    0.0000 C   0  0  0  0  0  0  0  0  0  0  0  0
    6.4302    2.0625    0.0000 C   0  0  0  0  0  0  0  0  0  0  0  0
    7.1447    2.4750    0.0000 C   0  0  0  0  0  0  0  0  0  0  0  0
    7.8592    2.0625    0.0000 C   0  0  0  0  0  0  0  0  0  0  0  0
    7.8592    1.2375    0.0000 C   0  0  0  0  0  0  0  0  0  0  0  0
    7.1447    0.8250    0.0000 C   0  0  0  0  0  0  0  0  0  0  0  0
    6.4302    1.2375    0.0000 C   0  0  0  0  0  0  0  0  0  0  0  0
  1  2  1  0
  2  3  1  0
  3  4  2  0
  4  5  1  0
  5  6  1  0
  4  7  1  0
  7  8  2  0
  8  9  1  0
  9 10  2  0
 10 11  1  0
 11 12  2  0
 12 13  1  0
  8 13  1  0
 13 14  2  0
  3 14  1  0
 11 15  1  0
 15 16  1  0
 16 17  1  0
 17 18  1  0
 18 19  1  0
 19 20  1  0
 19 21  1  0
 21 22  1  0
 15 22  1  0
  9 23  1  0
 23 24  1  0
 24 25  1  0
 25 26  1  0
 26 27  1  0
 27 28  1  0
 28 29  1  0
 24 29  1  0
 27 30  1  0
 30 31  1  0
 31 32  2  0
 32 33  1  0
 33 34  2  0
 34 35  1  0
 35 36  2  0
 31 36  1  0
M  END
>  <IC50>  (29) 
0.0455839090909

>  <NCGC_ID>  (29) 
NCGC00185850

>  <Name>  (29) 
BIX-01294

>  <PRIMARY_MOA>  (29) 
Histone-lysine N-methyltransferase EHMT2 Inhibitor

>  <StandardizerResult>  (29) 
Tautomerize (ID: Tautomerize)
Mesomerize (ID: Mesomerize)

>  <pIC50>  (29) 
1.34118843423

$$$$
NCGC00241102
     RDKit          2D

 43 51  0  0  1  0  0  0  0  0999 V2000
    7.8775    1.1761    0.0000 C   0  0  0  0  0  0  0  0  0  0  0  0
    7.2003    1.6473    0.0000 O   0  0  0  0  0  0  0  0  0  0  0  0
    6.4536    1.2965    0.0000 C   0  0  0  0  0  0  0  0  0  0  0  0
    5.7731    1.8094    0.0000 C   0  0  0  0  0  0  0  0  0  0  0  0
    5.0166    1.3970    0.0000 C   0  0  0  0  0  0  0  0  0  0  0  0
    4.9173    0.4756    0.0000 C   0  0  0  0  0  0  0  0  0  0  0  0
    5.6683    0.3870    0.0000 O   0  0  0  0  0  0  0  0  0  0  0  0
    6.4120    0.4010    0.0000 C   0  0  0  0  0  0  0  0  0  0  0  0
    7.2354    0.4523    0.0000 C   0  0  0  0  0  0  0  0  0  0  0  0
    6.5667   -0.4962    0.0000 N   0  0  0  0  0  0  0  0  0  0  0  0
    7.3675   -0.8078    0.0000 C   0  0  0  0  0  0  0  0  0  0  0  0
    7.3108   -1.6309    0.0000 C   0  0  0  0  0  0  0  0  0  0  0  0
    7.9952   -2.0915    0.0000 C   0  0  0  0  0  0  0  0  0  0  0  0
    8.7363   -1.7291    0.0000 C   0  0  0  0  0  0  0  0  0  0  0  0
    8.7931   -0.9061    0.0000 C   0  0  0  0  0  0  0  0  0  0  0  0
    8.1086   -0.4454    0.0000 C   0  0  0  0  0  0  0  0  0  0  0  0
    6.4829   -1.8695    0.0000 C   0  0  0  0  0  0  0  0  0  0  0  0
    6.0321   -1.1706    0.0000 C   0  0  0  0  0  0  0  0  0  0  0  0
    5.1873   -1.1306    0.0000 C   0  0  0  0  0  0  0  0  0  0  0  0
    4.7456   -1.8425    0.0000 C   0  0  0  0  0  0  0  0  0  0  0  0
    3.9184   -1.6170    0.0000 C   0  0  0  0  0  0  0  0  0  0  0  0
    3.2427   -2.0903    0.0000 C   0  0  0  0  0  0  0  0  0  0  0  0
    2.4949   -1.7418    0.0000 C   0  0  0  0  0  0  0  0  0  0  0  0
    2.4229   -0.9199    0.0000 C   0  0  0  0  0  0  0  0  0  0  0  0
    3.0987   -0.4466    0.0000 C   0  0  0  0  0  0  0  0  0  0  0  0
    3.8464   -0.7952    0.0000 C   0  0  0  0  0  0  0  0  0  0  0  0
    4.6655   -0.4272    0.0000 N   0  0  0  0  0  0  0  0  0  0  0  0
    5.1852   -2.5799    0.0000 C   0  0  0  0  0  0  0  0  0  0  0  0
    6.0101   -2.5774    0.0000 C   0  0  0  0  0  0  0  0  0  0  0  0
    6.2675   -3.3612    0.0000 C   0  0  0  0  0  0  0  0  0  0  0  0
    5.6015   -3.8482    0.0000 N   0  0  0  0  0  0  0  0  0  0  0  0
    4.9326   -3.3653    0.0000 C   0  0  0  0  0  0  0  0  0  0  0  0
    4.1488   -3.6227    0.0000 O   0  0  0  0  0  0  0  0  0  0  0  0
    5.8337    2.6322    0.0000 N   0  0  0  0  0  0  0  0  0  0  0  0
    6.5765    2.9911    0.0000 C   0  0  0  0  0  0  0  0  0  0  0  0
    5.1514    3.0960    0.0000 C   0  0  0  0  0  0  0  0  0  0  0  0
    4.4086    2.7370    0.0000 O   0  0  0  0  0  0  0  0  0  0  0  0
    5.2119    3.9187    0.0000 C   0  0  0  0  0  0  0  0  0  0  0  0
    4.5296    4.3825    0.0000 C   0  0  0  0  0  0  0  0  0  0  0  0
    4.5901    5.2053    0.0000 C   0  0  0  0  0  0  0  0  0  0  0  0
    5.3329    5.5643    0.0000 C   0  0  0  0  0  0  0  0  0  0  0  0
    6.0152    5.1005    0.0000 C   0  0  0  0  0  0  0  0  0  0  0  0
    5.9547    4.2777    0.0000 C   0  0  0  0  0  0  0  0  0  0  0  0
  1  2  1  0
  3  2  1  1
  3  4  1  0
  4  5  1  0
  6  5  1  1
  6  7  1  0
  7  8  1  0
  3  8  1  0
  8  9  1  6
  8 10  1  0
 10 11  1  0
 11 12  2  0
 12 13  1  0
 13 14  2  0
 14 15  1  0
 15 16  2  0
 11 16  1  0
 12 17  1  0
 17 18  1  0
 10 18  1  0
 18 19  2  0
 19 20  1  0
 20 21  1  0
 21 22  2  0
 22 23  1  0
 23 24  2  0
 24 25  1  0
 25 26  2  0
 21 26  1  0
 26 27  1  0
  6 27  1  0
 19 27  1  0
 20 28  2  0
 28 29  1  0
 17 29  2  0
 29 30  1  0
 30 31  1  0
 31 32  1  0
 28 32  1  0
 32 33  2  0
  4 34  1  1
 34 35  1  0
 34 36  1  0
 36 37  2  0
 36 38  1  0
 38 39  2  0
 39 40  1  0
 40 41  2  0
 41 42  1  0
 42 43  2  0
 38 43  1  0
M  END
>  <IC50>  (30) 
0.2295298

>  <NCGC_ID>  (30) 
NCGC00241102

>  <Name>  (30) 
Midostaurin

>  <PRIMARY_MOA>  (30) 
PKC/flt3 inhibitor

>  <StandardizerResult>  (30) 
Tautomerize (ID: Tautomerize)
Mesomerize (ID: Mesomerize)

>  <pIC50>  (30) 
0.639160921737

$$$$
NCGC00242441
     RDKit          2D

 50 53  0  0  0  0  0  0  0  0999 V2000
    4.7613   -0.2320    0.0000 C   0  0  0  0  0  0  0  0  0  0  0  0
    5.3558   -0.8040    0.0000 C   0  0  0  0  0  0  0  0  0  0  0  0
    6.1484   -0.5752    0.0000 C   0  0  0  0  0  0  0  0  0  0  0  0
    6.7429   -1.1472    0.0000 C   0  0  0  0  0  0  0  0  0  0  0  0
    7.5355   -0.9184    0.0000 C   0  0  0  0  0  0  0  0  0  0  0  0
    8.1300   -1.4905    0.0000 C   0  0  0  0  0  0  0  0  0  0  0  0
    7.9318   -2.2913    0.0000 O   0  0  0  0  0  0  0  0  0  0  0  0
    7.1392   -2.5201    0.0000 C   0  0  0  0  0  0  0  0  0  0  0  0
    7.7337   -3.0922    0.0000 C   0  0  0  0  0  0  0  0  0  0  0  0
    8.5263   -2.8633    0.0000 N   0  0  0  0  0  0  0  0  0  0  0  0
    8.7245   -2.0625    0.0000 C   0  0  0  0  0  0  0  0  0  0  0  0
    9.1208   -3.4354    0.0000 S   0  0  0  0  0  0  0  0  0  0  0  0
    9.6928   -2.8409    0.0000 O   0  0  0  0  0  0  0  0  0  0  0  0
    8.5488   -4.0299    0.0000 O   0  0  0  0  0  0  0  0  0  0  0  0
    9.7153   -4.0074    0.0000 C   0  0  0  0  0  0  0  0  0  0  0  0
   10.5079   -3.7786    0.0000 C   0  0  0  0  0  0  0  0  0  0  0  0
   11.1024   -4.3506    0.0000 C   0  0  0  0  0  0  0  0  0  0  0  0
   10.9042   -5.1515    0.0000 C   0  0  0  0  0  0  0  0  0  0  0  0
   11.4987   -5.7235    0.0000 F   0  0  0  0  0  0  0  0  0  0  0  0
   10.1116   -5.3803    0.0000 C   0  0  0  0  0  0  0  0  0  0  0  0
    9.5171   -4.8083    0.0000 C   0  0  0  0  0  0  0  0  0  0  0  0
    6.9411   -3.3210    0.0000 C   0  0  0  0  0  0  0  0  0  0  0  0
    7.5355   -3.8930    0.0000 C   0  0  0  0  0  0  0  0  0  0  0  0
    6.1484   -3.5498    0.0000 C   0  0  0  0  0  0  0  0  0  0  0  0
    5.5539   -2.9778    0.0000 N   0  0  0  0  0  0  0  0  0  0  0  0
    5.3558   -3.7786    0.0000 C   0  0  0  0  0  0  0  0  0  0  0  0
    4.5631   -4.0074    0.0000 C   0  0  0  0  0  0  0  0  0  0  0  0
    5.9503   -4.3506    0.0000 C   0  0  0  0  0  0  0  0  0  0  0  0
    5.7521   -5.1515    0.0000 N   0  0  0  0  0  0  0  0  0  0  0  0
    6.3466   -5.7235    0.0000 C   0  0  0  0  0  0  0  0  0  0  0  0
    4.9595   -5.3803    0.0000 C   0  0  0  0  0  0  0  0  0  0  0  0
    4.7613   -3.2066    0.0000 C   0  0  0  0  0  0  0  0  0  0  0  0
    4.1303   -3.7380    0.0000 O   0  0  0  0  0  0  0  0  0  0  0  0
    4.1668   -2.6345    0.0000 C   0  0  0  0  0  0  0  0  0  0  0  0
    4.3650   -1.8337    0.0000 C   0  0  0  0  0  0  0  0  0  0  0  0
    5.1576   -1.6049    0.0000 O   0  0  0  0  0  0  0  0  0  0  0  0
    3.7705   -1.2617    0.0000 C   0  0  0  0  0  0  0  0  0  0  0  0
    2.9779   -1.4905    0.0000 C   0  0  0  0  0  0  0  0  0  0  0  0
    2.7797   -2.2913    0.0000 C   0  0  0  0  0  0  0  0  0  0  0  0
    3.3742   -2.8633    0.0000 C   0  0  0  0  0  0  0  0  0  0  0  0
    1.9871   -2.5201    0.0000 N   0  0  0  0  0  0  0  0  0  0  0  0
    1.3926   -1.9481    0.0000 C   0  0  0  0  0  0  0  0  0  0  0  0
    1.5908   -1.1472    0.0000 O   0  0  0  0  0  0  0  0  0  0  0  0
    0.6000   -2.1769    0.0000 N   0  0  0  0  0  0  0  0  0  0  0  0
    0.0055   -1.6049    0.0000 C   0  0  0  0  0  0  0  0  0  0  0  0
   -0.7871   -1.8337    0.0000 C   0  0  0  0  0  0  0  0  0  0  0  0
   -1.3816   -1.2617    0.0000 C   0  0  0  0  0  0  0  0  0  0  0  0
   -1.1835   -0.4608    0.0000 C   0  0  0  0  0  0  0  0  0  0  0  0
   -0.3908   -0.2320    0.0000 C   0  0  0  0  0  0  0  0  0  0  0  0
    0.2037   -0.8040    0.0000 C   0  0  0  0  0  0  0  0  0  0  0  0
  2  1  1  1
  2  3  1  0
  3  4  1  0
  4  5  1  0
  5  6  1  0
  6  7  1  0
  7  8  1  0
  8  9  1  6
  9 10  1  0
 10 11  1  0
 10 12  1  0
 12 13  2  0
 12 14  2  0
 12 15  1  0
 15 16  2  0
 16 17  1  0
 17 18  2  0
 18 19  1  0
 18 20  1  0
 20 21  2  0
 15 21  1  0
  8 22  1  0
 22 23  1  6
 22 24  1  0
 24 25  1  0
 26 25  1  6
 26 27  1  0
 26 28  1  0
 28 29  1  0
 29 30  1  0
 29 31  1  0
 25 32  1  0
 32 33  2  0
 32 34  1  0
 34 35  2  0
 35 36  1  0
  2 36  1  0
 35 37  1  0
 37 38  2  0
 38 39  1  0
 39 40  2  0
 34 40  1  0
 39 41  1  0
 41 42  1  0
 42 43  2  0
 42 44  1  0
 44 45  1  0
 45 46  2  0
 46 47  1  0
 47 48  2  0
 48 49  1  0
 49 50  2  0
 45 50  1  0
M  END
>  <IC50>  (31) 
0.0231447636364

>  <NCGC_ID>  (31) 
NCGC00242441

>  <Name>  (31) 
ML238

>  <PRIMARY_MOA>  (31) 
unknown

>  <StandardizerResult>  (31) 
Tautomerize (ID: Tautomerize)
Mesomerize (ID: Mesomerize)

>  <pIC50>  (31) 
1.63554725005

$$$$
NCGC00242478
     RDKit          2D

 44 45  0  0  1  0  0  0  0  0999 V2000
    2.4813   -2.9617    0.0000 C   0  0  0  0  0  0  0  0  0  0  0  0
    3.2592   -2.6868    0.0000 O   0  0  0  0  0  0  0  0  0  0  0  0
    3.4101   -1.8757    0.0000 C   0  0  0  0  0  0  0  0  0  0  0  0
    2.6322   -2.1506    0.0000 C   0  0  0  0  0  0  0  0  0  0  0  0
    2.0052   -1.6144    0.0000 C   0  0  0  0  0  0  0  0  0  0  0  0
    2.1561   -0.8033    0.0000 C   0  0  0  0  0  0  0  0  0  0  0  0
    1.2274   -1.8892    0.0000 C   0  0  0  0  0  0  0  0  0  0  0  0
    0.6004   -1.3530    0.0000 C   0  0  0  0  0  0  0  0  0  0  0  0
   -0.2100   -1.5073    0.0000 C   0  0  0  0  0  0  0  0  0  0  0  0
   -0.4816   -2.2863    0.0000 N   0  0  0  0  0  0  0  0  0  0  0  0
   -1.2921   -2.4406    0.0000 C   0  0  0  0  0  0  0  0  0  0  0  0
   -1.5637   -3.2196    0.0000 C   0  0  0  0  0  0  0  0  0  0  0  0
   -2.3741   -3.3739    0.0000 N   0  0  0  0  0  0  0  0  0  0  0  0
   -2.6457   -4.1529    0.0000 C   0  0  0  0  0  0  0  0  0  0  0  0
   -2.9130   -2.7492    0.0000 C   0  0  0  0  0  0  0  0  0  0  0  0
   -0.7489   -0.8826    0.0000 C   0  0  0  0  0  0  0  0  0  0  0  0
   -1.5593   -1.0369    0.0000 O   0  0  0  0  0  0  0  0  0  0  0  0
   -0.4773   -0.1036    0.0000 C   0  0  0  0  0  0  0  0  0  0  0  0
    0.2962    0.2446    0.0000 C   0  0  0  0  0  0  0  0  0  0  0  0
    0.8324    0.8716    0.0000 N   0  0  0  0  0  0  0  0  0  0  0  0
    1.5944    0.5553    0.0000 C   0  0  0  0  0  0  0  0  0  0  0  0
    1.5544   -0.2687    0.0000 O   0  0  0  0  0  0  0  0  0  0  0  0
    2.4579    0.8189    0.0000 C   0  0  0  0  0  0  0  0  0  0  0  0
    3.0849    0.2827    0.0000 C   0  0  0  0  0  0  0  0  0  0  0  0
    3.8627    0.5576    0.0000 C   0  0  0  0  0  0  0  0  0  0  0  0
    4.4897    0.0213    0.0000 C   0  0  0  0  0  0  0  0  0  0  0  0
    5.2676    0.2962    0.0000 C   0  0  0  0  0  0  0  0  0  0  0  0
    5.4185    1.1073    0.0000 O   0  0  0  0  0  0  0  0  0  0  0  0
    6.1963    1.3822    0.0000 C   0  0  0  0  0  0  0  0  0  0  0  0
    5.8946   -0.2400    0.0000 C   0  0  0  0  0  0  0  0  0  0  0  0
    6.6724    0.0349    0.0000 O   0  0  0  0  0  0  0  0  0  0  0  0
    7.2994   -0.5014    0.0000 C   0  0  0  0  0  0  0  0  0  0  0  0
    8.0773   -0.2265    0.0000 N   0  0  0  0  0  0  0  0  0  0  0  0
    7.1485   -1.3124    0.0000 O   0  0  0  0  0  0  0  0  0  0  0  0
    5.7437   -1.0511    0.0000 C   0  0  0  0  0  0  0  0  0  0  0  0
    4.9658   -1.3260    0.0000 C   0  0  0  0  0  0  0  0  0  0  0  0
    4.8149   -2.1370    0.0000 C   0  0  0  0  0  0  0  0  0  0  0  0
    5.4419   -2.6733    0.0000 C   0  0  0  0  0  0  0  0  0  0  0  0
    4.0371   -2.4119    0.0000 C   0  0  0  0  0  0  0  0  0  0  0  0
    3.8862   -3.2230    0.0000 O   0  0  0  0  0  0  0  0  0  0  0  0
    6.3706   -1.5873    0.0000 C   0  0  0  0  0  0  0  0  0  0  0  0
    2.6264    1.6265    0.0000 C   0  0  0  0  0  0  0  0  0  0  0  0
    0.7268   -0.4591    0.0000 C   0  0  0  0  0  0  0  0  0  0  0  0
    1.5469   -0.5495    0.0000 O   0  0  0  0  0  0  0  0  0  0  0  0
  1  2  1  0
  3  2  1  6
  3  4  1  0
  4  5  1  0
  5  6  1  1
  5  7  1  0
  7  8  1  0
  8  9  2  0
 10  9  1  0
 10 11  2  3
 11 12  1  0
 12 13  1  0
 13 14  1  0
 13 15  1  0
  9 16  1  0
 16 17  1  0
 16 18  2  0
 18 19  1  0
 19 20  1  0
 20 21  1  0
 21 22  2  0
 21 23  1  0
 23 24  2  0
 24 25  1  0
 25 26  2  3
 26 27  1  0
 27 28  1  6
 28 29  1  0
 27 30  1  0
 30 31  1  1
 31 32  1  0
 32 33  1  0
 32 34  2  0
 30 35  1  0
 35 36  2  0
 36 37  1  0
 37 38  1  6
 37 39  1  0
  3 39  1  0
 39 40  1  1
 35 41  1  0
 23 42  1  0
 19 43  2  0
  8 43  1  0
 43 44  1  0
M  END
>  <IC50>  (32) 
0.208027763636

>  <NCGC_ID>  (32) 
NCGC00242478

>  <Name>  (32) 
Alvespimycin hydrochloride

>  <PRIMARY_MOA>  (32) 
Heat Shock Protein 90 (hsp90) Inhibitor

>  <StandardizerResult>  (32) 
Tautomerize (ID: Tautomerize)
Mesomerize (ID: Mesomerize)

>  <pIC50>  (32) 
0.681878699703

$$$$
NCGC00246187
     RDKit          2D

 37 42  0  0  0  0  0  0  0  0999 V2000
    0.0000   -1.6500    0.0000 C   0  0  0  0  0  0  0  0  0  0  0  0
    0.7145   -1.2375    0.0000 O   0  0  0  0  0  0  0  0  0  0  0  0
    1.4289   -1.6500    0.0000 C   0  0  0  0  0  0  0  0  0  0  0  0
    2.1434   -1.2375    0.0000 N   0  0  0  0  0  0  0  0  0  0  0  0
    2.8579   -1.6500    0.0000 C   0  0  0  0  0  0  0  0  0  0  0  0
    3.5724   -1.2375    0.0000 C   0  0  0  0  0  0  0  0  0  0  0  0
    3.5724   -0.4125    0.0000 N   0  0  0  0  0  0  0  0  0  0  0  0
    2.8579    0.0000    0.0000 C   0  0  0  0  0  0  0  0  0  0  0  0
    2.1434   -0.4125    0.0000 C   0  0  0  0  0  0  0  0  0  0  0  0
    1.4289    0.0000    0.0000 C   0  0  0  0  0  0  0  0  0  0  0  0
    1.4289    0.8250    0.0000 C   0  0  0  0  0  0  0  0  0  0  0  0
    0.7145    1.2375    0.0000 O   0  0  0  0  0  0  0  0  0  0  0  0
    2.1434    1.2375    0.0000 C   0  0  0  0  0  0  0  0  0  0  0  0
    2.8579    0.8250    0.0000 C   0  0  0  0  0  0  0  0  0  0  0  0
    2.1434    2.0625    0.0000 C   0  0  0  0  0  0  0  0  0  0  0  0
    2.8579    2.4750    0.0000 N   0  0  0  0  0  0  0  0  0  0  0  0
    2.9441    3.2955    0.0000 C   0  0  0  0  0  0  0  0  0  0  0  0
    3.7511    3.4670    0.0000 C   0  0  0  0  0  0  0  0  0  0  0  0
    4.1636    2.7525    0.0000 C   0  0  0  0  0  0  0  0  0  0  0  0
    3.6116    2.1394    0.0000 C   0  0  0  0  0  0  0  0  0  0  0  0
    0.7145   -0.4125    0.0000 C   0  0  0  0  0  0  0  0  0  0  0  0
    0.0000    0.0000    0.0000 N   0  0  0  0  0  0  0  0  0  0  0  0
   -0.7537   -0.3356    0.0000 C   0  0  0  0  0  0  0  0  0  0  0  0
   -1.3057    0.2775    0.0000 C   0  0  0  0  0  0  0  0  0  0  0  0
   -0.8932    0.9920    0.0000 C   0  0  0  0  0  0  0  0  0  0  0  0
   -0.0862    0.8205    0.0000 C   0  0  0  0  0  0  0  0  0  0  0  0
    4.2868   -1.6500    0.0000 C   0  0  0  0  0  0  0  0  0  0  0  0
    5.0013   -1.2375    0.0000 C   0  0  0  0  0  0  0  0  0  0  0  0
    5.7158   -1.6500    0.0000 C   0  0  0  0  0  0  0  0  0  0  0  0
    5.7158   -2.4750    0.0000 C   0  0  0  0  0  0  0  0  0  0  0  0
    6.4302   -2.8875    0.0000 Cl  0  0  0  0  0  0  0  0  0  0  0  0
    5.0013   -2.8875    0.0000 C   0  0  0  0  0  0  0  0  0  0  0  0
    4.2868   -2.4750    0.0000 C   0  0  0  0  0  0  0  0  0  0  0  0
    3.5724   -2.8875    0.0000 N   0  0  0  0  0  0  0  0  0  0  0  0
    2.8579   -2.4750    0.0000 C   0  0  0  0  0  0  0  0  0  0  0  0
    2.1434   -2.8875    0.0000 C   0  0  0  0  0  0  0  0  0  0  0  0
    1.4289   -2.4750    0.0000 C   0  0  0  0  0  0  0  0  0  0  0  0
  1  2  1  0
  2  3  1  0
  3  4  2  0
  4  5  1  0
  5  6  2  0
  6  7  1  0
  7  8  1  0
  8  9  2  0
  9 10  1  0
 10 11  2  0
 11 12  1  0
 11 13  1  0
 13 14  2  0
  8 14  1  0
 13 15  1  0
 15 16  1  0
 16 17  1  0
 17 18  1  0
 18 19  1  0
 19 20  1  0
 16 20  1  0
 10 21  1  0
 21 22  1  0
 22 23  1  0
 23 24  1  0
 24 25  1  0
 25 26  1  0
 22 26  1  0
  6 27  1  0
 27 28  2  0
 28 29  1  0
 29 30  2  0
 30 31  1  0
 30 32  1  0
 32 33  2  0
 27 33  1  0
 33 34  1  0
 34 35  2  0
  5 35  1  0
 35 36  1  0
 36 37  2  0
  3 37  1  0
M  END
>  <IC50>  (33) 
0.0160497272727

>  <NCGC_ID>  (33) 
NCGC00246187

>  <Name>  (33) 
Pyronaridine

>  <PRIMARY_MOA>  (33) 
antimalarial agents

>  <StandardizerResult>  (33) 
Tautomerize (ID: Tautomerize)
Mesomerize (ID: Mesomerize)

>  <pIC50>  (33) 
1.79453234301

$$$$
NCGC00247878
     RDKit          2D

 34 37  0  0  0  0  0  0  0  0999 V2000
   -0.7145    1.2375    0.0000 C   0  0  0  0  0  0  0  0  0  0  0  0
    0.0000    0.8250    0.0000 C   0  0  0  0  0  0  0  0  0  0  0  0
    0.0000   -0.0000    0.0000 N   0  0  0  0  0  0  0  0  0  0  0  0
    0.7145   -0.4125    0.0000 C   0  0  0  0  0  0  0  0  0  0  0  0
    1.4289   -0.0000    0.0000 O   0  0  0  0  0  0  0  0  0  0  0  0
    0.7145   -1.2375    0.0000 C   0  0  0  0  0  0  0  0  0  0  0  0
    1.3819   -1.7224    0.0000 N   0  0  0  0  0  0  0  0  0  0  0  0
    1.1270   -2.5070    0.0000 O   0  0  0  0  0  0  0  0  0  0  0  0
    0.3020   -2.5070    0.0000 C   0  0  0  0  0  0  0  0  0  0  0  0
    0.0470   -1.7224    0.0000 C   0  0  0  0  0  0  0  0  0  0  0  0
   -0.7376   -1.4675    0.0000 C   0  0  0  0  0  0  0  0  0  0  0  0
   -1.3507   -2.0195    0.0000 C   0  0  0  0  0  0  0  0  0  0  0  0
   -2.1353   -1.7646    0.0000 C   0  0  0  0  0  0  0  0  0  0  0  0
   -2.3068   -0.9576    0.0000 C   0  0  0  0  0  0  0  0  0  0  0  0
   -3.0915   -0.7027    0.0000 C   0  0  0  0  0  0  0  0  0  0  0  0
   -3.2630    0.1043    0.0000 N   0  0  0  0  0  0  0  0  0  0  0  0
   -4.0476    0.3592    0.0000 C   0  0  0  0  0  0  0  0  0  0  0  0
   -4.2191    1.1662    0.0000 C   0  0  0  0  0  0  0  0  0  0  0  0
   -3.6060    1.7182    0.0000 O   0  0  0  0  0  0  0  0  0  0  0  0
   -2.8214    1.4633    0.0000 C   0  0  0  0  0  0  0  0  0  0  0  0
   -2.6499    0.6563    0.0000 C   0  0  0  0  0  0  0  0  0  0  0  0
   -1.6937   -0.4056    0.0000 C   0  0  0  0  0  0  0  0  0  0  0  0
   -0.9091   -0.6605    0.0000 C   0  0  0  0  0  0  0  0  0  0  0  0
   -0.1830   -3.1745    0.0000 C   0  0  0  0  0  0  0  0  0  0  0  0
    0.1526   -3.9282    0.0000 C   0  0  0  0  0  0  0  0  0  0  0  0
    0.9731   -4.0144    0.0000 O   0  0  0  0  0  0  0  0  0  0  0  0
   -0.3323   -4.5956    0.0000 C   0  0  0  0  0  0  0  0  0  0  0  0
   -1.1528   -4.5094    0.0000 C   0  0  0  0  0  0  0  0  0  0  0  0
   -1.6377   -5.1768    0.0000 O   0  0  0  0  0  0  0  0  0  0  0  0
   -1.4884   -3.7557    0.0000 C   0  0  0  0  0  0  0  0  0  0  0  0
   -1.0034   -3.0882    0.0000 C   0  0  0  0  0  0  0  0  0  0  0  0
   -2.3088   -3.6695    0.0000 C   0  0  0  0  0  0  0  0  0  0  0  0
   -2.6444   -2.9158    0.0000 C   0  0  0  0  0  0  0  0  0  0  0  0
   -2.7938   -4.3369    0.0000 C   0  0  0  0  0  0  0  0  0  0  0  0
  1  2  1  0
  2  3  1  0
  3  4  1  0
  4  5  2  0
  4  6  1  0
  6  7  2  0
  7  8  1  0
  8  9  1  0
  9 10  2  0
  6 10  1  0
 10 11  1  0
 11 12  2  0
 12 13  1  0
 13 14  2  0
 14 15  1  0
 15 16  1  0
 16 17  1  0
 17 18  1  0
 18 19  1  0
 19 20  1  0
 20 21  1  0
 16 21  1  0
 14 22  1  0
 22 23  2  0
 11 23  1  0
  9 24  1  0
 24 25  2  0
 25 26  1  0
 25 27  1  0
 27 28  2  0
 28 29  1  0
 28 30  1  0
 30 31  2  0
 24 31  1  0
 30 32  1  0
 32 33  1  0
 32 34  1  0
M  END
>  <IC50>  (34) 
0.0488689454545

>  <NCGC_ID>  (34) 
NCGC00247878

>  <Name>  (34) 
NVP-AUY922

>  <PRIMARY_MOA>  (34) 
Heat Shock Protein 90 (hsp90) Inhibitor

>  <StandardizerResult>  (34) 
Tautomerize (ID: Tautomerize)
Mesomerize (ID: Mesomerize)

>  <pIC50>  (34) 
1.31096703253

$$$$
NCGC00249613
     RDKit          2D

 52 55  0  0  1  0  0  0  0  0999 V2000
   10.4521   -0.7222    0.0000 C   0  0  0  0  0  0  0  0  0  0  0  0
   10.6294    0.0835    0.0000 C   0  0  0  0  0  0  0  0  0  0  0  0
   11.0716    0.7800    0.0000 C   0  0  0  0  0  0  0  0  0  0  0  0
   11.4537    0.0488    0.0000 O   0  0  0  0  0  0  0  0  0  0  0  0
    9.8668    0.3980    0.0000 C   0  0  0  0  0  0  0  0  0  0  0  0
    9.7578    1.2158    0.0000 O   0  0  0  0  0  0  0  0  0  0  0  0
    9.2130   -0.1052    0.0000 C   0  0  0  0  0  0  0  0  0  0  0  0
    8.4503    0.2093    0.0000 N   0  0  0  0  0  0  0  0  0  0  0  0
    7.7966   -0.2939    0.0000 C   0  0  0  0  0  0  0  0  0  0  0  0
    7.9056   -1.1117    0.0000 O   0  0  0  0  0  0  0  0  0  0  0  0
    7.0339    0.0206    0.0000 C   0  0  0  0  0  0  0  0  0  0  0  0
    6.9250    0.8384    0.0000 C   0  0  0  0  0  0  0  0  0  0  0  0
    7.5787    1.3416    0.0000 C   0  0  0  0  0  0  0  0  0  0  0  0
    7.4697    2.1594    0.0000 C   0  0  0  0  0  0  0  0  0  0  0  0
    8.1235    2.6627    0.0000 C   0  0  0  0  0  0  0  0  0  0  0  0
    8.8862    2.3481    0.0000 C   0  0  0  0  0  0  0  0  0  0  0  0
    8.9951    1.5303    0.0000 C   0  0  0  0  0  0  0  0  0  0  0  0
    8.3414    1.0271    0.0000 C   0  0  0  0  0  0  0  0  0  0  0  0
    6.3802   -0.4826    0.0000 N   0  0  0  0  0  0  0  0  0  0  0  0
    5.6175   -0.1681    0.0000 C   0  0  0  0  0  0  0  0  0  0  0  0
    5.5085    0.6497    0.0000 O   0  0  0  0  0  0  0  0  0  0  0  0
    4.9637   -0.6713    0.0000 C   0  0  0  0  0  0  0  0  0  0  0  0
    5.0727   -1.4891    0.0000 C   0  0  0  0  0  0  0  0  0  0  0  0
    5.8354   -1.8037    0.0000 C   0  0  0  0  0  0  0  0  0  0  0  0
    6.4891   -1.3004    0.0000 C   0  0  0  0  0  0  0  0  0  0  0  0
    5.9443   -2.6214    0.0000 C   0  0  0  0  0  0  0  0  0  0  0  0
    4.2011   -0.3568    0.0000 N   0  0  0  0  0  0  0  0  0  0  0  0
    3.5473   -0.8601    0.0000 C   0  0  0  0  0  0  0  0  0  0  0  0
    3.6563   -1.6778    0.0000 O   0  0  0  0  0  0  0  0  0  0  0  0
    2.7846   -0.5455    0.0000 C   0  0  0  0  0  0  0  0  0  0  0  0
    2.6757    0.2722    0.0000 C   0  0  0  0  0  0  0  0  0  0  0  0
    3.3294    0.7755    0.0000 C   0  0  0  0  0  0  0  0  0  0  0  0
    3.2205    1.5933    0.0000 C   0  0  0  0  0  0  0  0  0  0  0  0
    2.4578    1.9078    0.0000 C   0  0  0  0  0  0  0  0  0  0  0  0
    2.3488    2.7256    0.0000 C   0  0  0  0  0  0  0  0  0  0  0  0
    3.0025    3.2288    0.0000 C   0  0  0  0  0  0  0  0  0  0  0  0
    3.7652    2.9143    0.0000 C   0  0  0  0  0  0  0  0  0  0  0  0
    3.8742    2.0965    0.0000 C   0  0  0  0  0  0  0  0  0  0  0  0
    2.1309   -1.0488    0.0000 N   0  0  0  0  0  0  0  0  0  0  0  0
    1.3682   -0.7343    0.0000 C   0  0  0  0  0  0  0  0  0  0  0  0
    1.2592    0.0835    0.0000 O   0  0  0  0  0  0  0  0  0  0  0  0
    0.7145   -1.2375    0.0000 C   0  0  0  0  0  0  0  0  0  0  0  0
   -0.0482   -0.9230    0.0000 N   0  0  0  0  0  0  0  0  0  0  0  0
   -0.7020   -1.4262    0.0000 C   0  0  0  0  0  0  0  0  0  0  0  0
   -1.4646   -1.1117    0.0000 C   0  0  0  0  0  0  0  0  0  0  0  0
   -1.5736   -0.2939    0.0000 O   0  0  0  0  0  0  0  0  0  0  0  0
   -0.9199    0.2093    0.0000 C   0  0  0  0  0  0  0  0  0  0  0  0
   -0.1572   -0.1052    0.0000 C   0  0  0  0  0  0  0  0  0  0  0  0
    9.3220   -0.9230    0.0000 C   0  0  0  0  0  0  0  0  0  0  0  0
   10.0847   -1.2375    0.0000 C   0  0  0  0  0  0  0  0  0  0  0  0
   10.7384   -0.7343    0.0000 C   0  0  0  0  0  0  0  0  0  0  0  0
   10.1936   -2.0553    0.0000 C   0  0  0  0  0  0  0  0  0  0  0  0
  2  1  1  6
  2  3  1  0
  3  4  1  0
  2  4  1  0
  2  5  1  0
  5  6  2  0
  7  5  1  6
  7  8  1  0
  8  9  1  0
  9 10  2  0
 11  9  1  1
 11 12  1  0
 12 13  1  0
 13 14  2  0
 14 15  1  0
 15 16  2  0
 16 17  1  0
 17 18  2  0
 13 18  1  0
 11 19  1  0
 19 20  1  0
 20 21  2  0
 22 20  1  6
 22 23  1  0
 23 24  1  0
 24 25  1  0
 24 26  1  0
 22 27  1  0
 27 28  1  0
 28 29  2  0
 30 28  1  1
 30 31  1  0
 31 32  1  0
 32 33  1  0
 33 34  2  0
 34 35  1  0
 35 36  2  0
 36 37  1  0
 37 38  2  0
 33 38  1  0
 30 39  1  0
 39 40  1  0
 40 41  2  0
 40 42  1  0
 42 43  1  0
 43 44  1  0
 44 45  1  0
 45 46  1  0
 46 47  1  0
 47 48  1  0
 43 48  1  0
  7 49  1  0
 49 50  1  0
 50 51  1  0
 50 52  1  0
M  END
>  <IC50>  (35) 
0.0252824727273

>  <NCGC_ID>  (35) 
NCGC00249613

>  <Name>  (35) 
Carfilzomib

>  <PRIMARY_MOA>  (35) 
Proteasome Inhibitor

>  <StandardizerResult>  (35) 
Tautomerize (ID: Tautomerize)
Mesomerize (ID: Mesomerize)

>  <pIC50>  (35) 
1.59718045257

$$$$
NCGC00250408
     RDKit          2D

 36 40  0  0  0  0  0  0  0  0999 V2000
   -2.1434   -3.7125    0.0000 C   0  0  0  0  0  0  0  0  0  0  0  0
   -2.1434   -2.8875    0.0000 O   0  0  0  0  0  0  0  0  0  0  0  0
   -1.4289   -2.4750    0.0000 C   0  0  0  0  0  0  0  0  0  0  0  0
   -1.4289   -1.6500    0.0000 C   0  0  0  0  0  0  0  0  0  0  0  0
   -2.1434   -1.2375    0.0000 N   0  0  0  0  0  0  0  0  0  0  0  0
   -2.8579   -1.6500    0.0000 S   0  0  0  0  0  0  0  0  0  0  0  0
   -2.4454   -2.3645    0.0000 O   0  0  0  0  0  0  0  0  0  0  0  0
   -3.2704   -0.9355    0.0000 O   0  0  0  0  0  0  0  0  0  0  0  0
   -3.5724   -2.0625    0.0000 C   0  0  0  0  0  0  0  0  0  0  0  0
   -3.5724   -2.8875    0.0000 C   0  0  0  0  0  0  0  0  0  0  0  0
   -2.8579   -3.3000    0.0000 F   0  0  0  0  0  0  0  0  0  0  0  0
   -4.2868   -3.3000    0.0000 C   0  0  0  0  0  0  0  0  0  0  0  0
   -5.0013   -2.8875    0.0000 C   0  0  0  0  0  0  0  0  0  0  0  0
   -5.7158   -3.3000    0.0000 F   0  0  0  0  0  0  0  0  0  0  0  0
   -5.0013   -2.0625    0.0000 C   0  0  0  0  0  0  0  0  0  0  0  0
   -4.2868   -1.6500    0.0000 C   0  0  0  0  0  0  0  0  0  0  0  0
   -0.7145   -1.2375    0.0000 C   0  0  0  0  0  0  0  0  0  0  0  0
    0.0000   -1.6500    0.0000 C   0  0  0  0  0  0  0  0  0  0  0  0
    0.0000   -2.4750    0.0000 C   0  0  0  0  0  0  0  0  0  0  0  0
   -0.7145   -2.8875    0.0000 N   0  0  0  0  0  0  0  0  0  0  0  0
    0.7145   -1.2375    0.0000 C   0  0  0  0  0  0  0  0  0  0  0  0
    0.7145   -0.4125    0.0000 C   0  0  0  0  0  0  0  0  0  0  0  0
    1.4289    0.0000    0.0000 C   0  0  0  0  0  0  0  0  0  0  0  0
    2.1434   -0.4125    0.0000 C   0  0  0  0  0  0  0  0  0  0  0  0
    2.8579    0.0000    0.0000 N   0  0  0  0  0  0  0  0  0  0  0  0
    3.5724   -0.4125    0.0000 C   0  0  0  0  0  0  0  0  0  0  0  0
    3.5724   -1.2375    0.0000 C   0  0  0  0  0  0  0  0  0  0  0  0
    2.8579   -1.6500    0.0000 C   0  0  0  0  0  0  0  0  0  0  0  0
    2.8579   -2.4750    0.0000 C   0  0  0  0  0  0  0  0  0  0  0  0
    3.5724   -2.8875    0.0000 C   0  0  0  0  0  0  0  0  0  0  0  0
    3.5724   -3.7125    0.0000 N   0  0  0  0  0  0  0  0  0  0  0  0
    2.8579   -4.1250    0.0000 N   0  0  0  0  0  0  0  0  0  0  0  0
    2.1434   -3.7125    0.0000 C   0  0  0  0  0  0  0  0  0  0  0  0
    2.1434   -2.8875    0.0000 C   0  0  0  0  0  0  0  0  0  0  0  0
    2.1434   -1.2375    0.0000 C   0  0  0  0  0  0  0  0  0  0  0  0
    1.4289   -1.6500    0.0000 C   0  0  0  0  0  0  0  0  0  0  0  0
  1  2  1  0
  2  3  1  0
  3  4  2  0
  4  5  1  0
  5  6  1  0
  6  7  2  0
  6  8  2  0
  6  9  1  0
  9 10  2  0
 10 11  1  0
 10 12  1  0
 12 13  2  0
 13 14  1  0
 13 15  1  0
 15 16  2  0
  9 16  1  0
  4 17  1  0
 17 18  2  0
 18 19  1  0
 19 20  2  0
  3 20  1  0
 18 21  1  0
 21 22  2  0
 22 23  1  0
 23 24  2  0
 24 25  1  0
 25 26  2  0
 26 27  1  0
 27 28  2  0
 28 29  1  0
 29 30  2  0
 30 31  1  0
 31 32  2  0
 32 33  1  0
 33 34  2  0
 29 34  1  0
 28 35  1  0
 24 35  1  0
 35 36  2  0
 21 36  1  0
M  END
>  <IC50>  (36) 
0.3084896

>  <NCGC_ID>  (36) 
NCGC00250408

>  <Name>  (36) 
GSK-2126458

>  <PRIMARY_MOA>  (36) 
PI3Kalpha/beta/delta/gamma Inhibitor

>  <StandardizerResult>  (36) 
Tautomerize (ID: Tautomerize)
Mesomerize (ID: Mesomerize)

>  <pIC50>  (36) 
0.510759472599

$$$$
NCGC00263117
     RDKit          2D

 26 28  0  0  0  0  0  0  0  0999 V2000
   -0.3132   -1.2447    0.0000 C   0  0  0  0  0  0  0  0  0  0  0  0
   -0.9263   -1.7967    0.0000 C   0  0  0  0  0  0  0  0  0  0  0  0
   -0.8400   -2.6172    0.0000 C   0  0  0  0  0  0  0  0  0  0  0  0
   -0.1256   -3.0297    0.0000 C   0  0  0  0  0  0  0  0  0  0  0  0
    0.5889   -2.6172    0.0000 C   0  0  0  0  0  0  0  0  0  0  0  0
    1.3034   -3.0297    0.0000 N   0  0  0  0  0  0  0  0  0  0  0  0
    2.0178   -2.6172    0.0000 C   0  0  0  0  0  0  0  0  0  0  0  0
    2.7323   -3.0297    0.0000 C   0  0  0  0  0  0  0  0  0  0  0  0
    3.4468   -2.6172    0.0000 C   0  0  0  0  0  0  0  0  0  0  0  0
    4.1613   -3.0297    0.0000 C   0  0  0  0  0  0  0  0  0  0  0  0
    4.1613   -3.8547    0.0000 C   0  0  0  0  0  0  0  0  0  0  0  0
    4.8757   -4.2672    0.0000 C   0  0  0  0  0  0  0  0  0  0  0  0
    4.8757   -5.0922    0.0000 C   0  0  0  0  0  0  0  0  0  0  0  0
    5.5902   -5.5047    0.0000 C   0  0  0  0  0  0  0  0  0  0  0  0
    5.5902   -6.3297    0.0000 O   0  0  0  0  0  0  0  0  0  0  0  0
    6.3047   -5.0922    0.0000 N   0  0  0  0  0  0  0  0  0  0  0  0
    6.3047   -4.2672    0.0000 O   0  0  0  0  0  0  0  0  0  0  0  0
    3.4468   -4.2672    0.0000 C   0  0  0  0  0  0  0  0  0  0  0  0
    2.7323   -3.8547    0.0000 C   0  0  0  0  0  0  0  0  0  0  0  0
   -1.5937   -2.9527    0.0000 C   0  0  0  0  0  0  0  0  0  0  0  0
   -1.8487   -3.7374    0.0000 C   0  0  0  0  0  0  0  0  0  0  0  0
   -2.6556   -3.9089    0.0000 C   0  0  0  0  0  0  0  0  0  0  0  0
   -3.2077   -3.2958    0.0000 C   0  0  0  0  0  0  0  0  0  0  0  0
   -2.9527   -2.5112    0.0000 C   0  0  0  0  0  0  0  0  0  0  0  0
   -2.1457   -2.3397    0.0000 C   0  0  0  0  0  0  0  0  0  0  0  0
   -1.7332   -1.6252    0.0000 N   0  0  0  0  0  0  0  0  0  0  0  0
  1  2  1  0
  2  3  2  0
  3  4  1  0
  4  5  1  0
  5  6  1  0
  6  7  1  0
  7  8  1  0
  8  9  2  0
  9 10  1  0
 10 11  2  0
 11 12  1  0
 12 13  2  0
 13 14  1  0
 14 15  2  0
 14 16  1  0
 16 17  1  0
 11 18  1  0
 18 19  2  0
  8 19  1  0
  3 20  1  0
 20 21  2  0
 21 22  1  0
 22 23  2  0
 23 24  1  0
 24 25  2  0
 20 25  1  0
 25 26  1  0
  2 26  1  0
M  END
>  <IC50>  (37) 
0.104849036364

>  <NCGC_ID>  (37) 
NCGC00263117

>  <Name>  (37) 
Panobinostat

>  <PRIMARY_MOA>  (37) 
Histone Deacetylase (HDAC) Inhibitor

>  <StandardizerResult>  (37) 
Tautomerize (ID: Tautomerize)
Mesomerize (ID: Mesomerize)

>  <pIC50>  (37) 
0.979435556652

$$$$
NCGC00263215
     RDKit          2D

 45 51  0  0  0  0  0  0  0  0999 V2000
    0.7145    6.1875    0.0000 C   0  0  0  0  0  0  0  0  0  0  0  0
   -0.0000    5.7750    0.0000 C   0  0  0  0  0  0  0  0  0  0  0  0
   -0.0000    4.9500    0.0000 C   0  0  0  0  0  0  0  0  0  0  0  0
    0.7145    4.5375    0.0000 O   0  0  0  0  0  0  0  0  0  0  0  0
   -0.7145    4.5375    0.0000 N   0  0  0  0  0  0  0  0  0  0  0  0
   -0.7145    3.7125    0.0000 C   0  0  0  0  0  0  0  0  0  0  0  0
   -1.4289    3.3000    0.0000 C   0  0  0  0  0  0  0  0  0  0  0  0
   -2.1434    3.7125    0.0000 N   0  0  0  0  0  0  0  0  0  0  0  0
   -2.1434    4.5375    0.0000 C   0  0  0  0  0  0  0  0  0  0  0  0
   -1.4289    4.9500    0.0000 C   0  0  0  0  0  0  0  0  0  0  0  0
   -2.8579    3.3000    0.0000 C   0  0  0  0  0  0  0  0  0  0  0  0
   -3.5724    3.7125    0.0000 C   0  0  0  0  0  0  0  0  0  0  0  0
   -4.2868    3.3000    0.0000 C   0  0  0  0  0  0  0  0  0  0  0  0
   -4.2868    2.4750    0.0000 C   0  0  0  0  0  0  0  0  0  0  0  0
   -3.5724    2.0625    0.0000 C   0  0  0  0  0  0  0  0  0  0  0  0
   -2.8579    2.4750    0.0000 C   0  0  0  0  0  0  0  0  0  0  0  0
   -5.0013    2.0625    0.0000 N   0  0  0  0  0  0  0  0  0  0  0  0
   -5.7158    2.4750    0.0000 C   0  0  0  0  0  0  0  0  0  0  0  0
   -5.7158    3.3000    0.0000 O   0  0  0  0  0  0  0  0  0  0  0  0
   -6.4302    2.0625    0.0000 C   0  0  0  0  0  0  0  0  0  0  0  0
   -6.4302    1.2375    0.0000 C   0  0  0  0  0  0  0  0  0  0  0  0
   -5.7158    0.8250    0.0000 C   0  0  0  0  0  0  0  0  0  0  0  0
   -5.0013    1.2375    0.0000 C   0  0  0  0  0  0  0  0  0  0  0  0
   -4.2868    0.8250    0.0000 C   0  0  0  0  0  0  0  0  0  0  0  0
   -3.5724    1.2375    0.0000 C   0  0  0  0  0  0  0  0  0  0  0  0
   -2.8579    0.8250    0.0000 C   0  0  0  0  0  0  0  0  0  0  0  0
   -2.8579   -0.0000    0.0000 C   0  0  0  0  0  0  0  0  0  0  0  0
   -3.5724   -0.4125    0.0000 C   0  0  0  0  0  0  0  0  0  0  0  0
   -4.2868   -0.0000    0.0000 C   0  0  0  0  0  0  0  0  0  0  0  0
   -5.0013   -0.4125    0.0000 N   0  0  0  0  0  0  0  0  0  0  0  0
   -5.7158   -0.0000    0.0000 C   0  0  0  0  0  0  0  0  0  0  0  0
   -2.1434    1.2375    0.0000 C   0  0  0  0  0  0  0  0  0  0  0  0
   -2.1434    2.0625    0.0000 C   0  0  0  0  0  0  0  0  0  0  0  0
   -1.4289    2.4750    0.0000 N   0  0  0  0  0  0  0  0  0  0  0  0
   -0.7145    2.0625    0.0000 C   0  0  0  0  0  0  0  0  0  0  0  0
    0.0000    2.4750    0.0000 C   0  0  0  0  0  0  0  0  0  0  0  0
    0.7145    2.0625    0.0000 C   0  0  0  0  0  0  0  0  0  0  0  0
    0.7145    1.2375    0.0000 C   0  0  0  0  0  0  0  0  0  0  0  0
   -0.0000    0.8250    0.0000 C   0  0  0  0  0  0  0  0  0  0  0  0
   -0.7145    1.2375    0.0000 C   0  0  0  0  0  0  0  0  0  0  0  0
   -1.4289    0.8250    0.0000 C   0  0  0  0  0  0  0  0  0  0  0  0
   -3.5724    4.5375    0.0000 C   0  0  0  0  0  0  0  0  0  0  0  0
   -3.5724    5.3625    0.0000 F   0  0  0  0  0  0  0  0  0  0  0  0
   -4.3974    4.5375    0.0000 F   0  0  0  0  0  0  0  0  0  0  0  0
   -2.7474    4.5375    0.0000 F   0  0  0  0  0  0  0  0  0  0  0  0
  1  2  1  0
  2  3  1  0
  3  4  2  0
  3  5  1  0
  5  6  1  0
  6  7  1  0
  7  8  1  0
  8  9  1  0
  9 10  1  0
  5 10  1  0
  8 11  1  0
 11 12  2  0
 12 13  1  0
 13 14  2  0
 14 15  1  0
 15 16  2  0
 11 16  1  0
 14 17  1  0
 17 18  1  0
 18 19  2  0
 18 20  1  0
 20 21  2  0
 21 22  1  0
 22 23  2  0
 17 23  1  0
 23 24  1  0
 24 25  2  0
 25 26  1  0
 26 27  2  0
 27 28  1  0
 28 29  2  0
 24 29  1  0
 29 30  1  0
 30 31  2  0
 22 31  1  0
 26 32  1  0
 32 33  2  0
 33 34  1  0
 34 35  2  0
 35 36  1  0
 36 37  2  0
 37 38  1  0
 38 39  2  0
 39 40  1  0
 35 40  1  0
 40 41  2  0
 32 41  1  0
 12 42  1  0
 42 43  1  0
 42 44  1  0
 42 45  1  0
M  END
>  <IC50>  (38) 
0.247619709091

>  <NCGC_ID>  (38) 
NCGC00263215

>  <Name>  (38) 
Torin-1

>  <PRIMARY_MOA>  (38) 
mTOR inhibitor

>  <StandardizerResult>  (38) 
Tautomerize (ID: Tautomerize)
Mesomerize (ID: Mesomerize)

>  <pIC50>  (38) 
0.606214790957

$$$$
NCGC00263379
     RDKit          2D

 23 26  0  0  0  0  0  0  0  0999 V2000
   -0.1712   -0.6979    0.0000 C   0  0  0  0  0  0  0  0  0  0  0  0
    0.6538   -0.6979    0.0000 C   0  0  0  0  0  0  0  0  0  0  0  0
    1.1387   -0.0305    0.0000 N   0  0  0  0  0  0  0  0  0  0  0  0
    1.9233   -0.2854    0.0000 C   0  0  0  0  0  0  0  0  0  0  0  0
    2.6378    0.1271    0.0000 C   0  0  0  0  0  0  0  0  0  0  0  0
    3.3523   -0.2854    0.0000 C   0  0  0  0  0  0  0  0  0  0  0  0
    3.3523   -1.1104    0.0000 C   0  0  0  0  0  0  0  0  0  0  0  0
    2.6378   -1.5229    0.0000 C   0  0  0  0  0  0  0  0  0  0  0  0
    1.9233   -1.1104    0.0000 C   0  0  0  0  0  0  0  0  0  0  0  0
    1.1387   -1.3654    0.0000 N   0  0  0  0  0  0  0  0  0  0  0  0
    0.8838   -2.1500    0.0000 C   0  0  0  0  0  0  0  0  0  0  0  0
    1.3687   -2.8174    0.0000 C   0  0  0  0  0  0  0  0  0  0  0  0
    0.8838   -3.4849    0.0000 C   0  0  0  0  0  0  0  0  0  0  0  0
    0.0992   -3.2299    0.0000 C   0  0  0  0  0  0  0  0  0  0  0  0
    0.0992   -2.4049    0.0000 S   0  0  0  0  0  0  0  0  0  0  0  0
   -0.5683   -3.7149    0.0000 C   0  0  0  0  0  0  0  0  0  0  0  0
   -1.3220   -3.3793    0.0000 O   0  0  0  0  0  0  0  0  0  0  0  0
   -0.4820   -4.5353    0.0000 N   0  0  0  0  0  0  0  0  0  0  0  0
   -1.1495   -5.0203    0.0000 C   0  0  0  0  0  0  0  0  0  0  0  0
   -1.4850   -5.7739    0.0000 C   0  0  0  0  0  0  0  0  0  0  0  0
   -1.9700   -5.1065    0.0000 C   0  0  0  0  0  0  0  0  0  0  0  0
    2.6378    0.9521    0.0000 C   0  0  0  0  0  0  0  0  0  0  0  0
    2.6378    1.7771    0.0000 N   0  0  0  0  0  0  0  0  0  0  0  0
  1  2  1  0
  2  3  2  0
  3  4  1  0
  4  5  2  0
  5  6  1  0
  6  7  2  0
  7  8  1  0
  8  9  2  0
  4  9  1  0
  9 10  1  0
  2 10  1  0
 10 11  1  0
 11 12  2  0
 12 13  1  0
 13 14  2  0
 14 15  1  0
 11 15  1  0
 14 16  1  0
 16 17  2  0
 16 18  1  0
 18 19  1  0
 19 20  1  0
 20 21  1  0
 19 21  1  0
  5 22  1  0
 22 23  3  0
M  END
>  <IC50>  (39) 
0.0387254181818

>  <NCGC_ID>  (39) 
NCGC00263379

>  <Name>  (39) 
Genz-669178

>  <PRIMARY_MOA>  (39) 
PfDHODH

>  <StandardizerResult>  (39) 
Tautomerize (ID: Tautomerize)
Mesomerize (ID: Mesomerize)

>  <pIC50>  (39) 
1.41200388375

$$$$
NCGC00263785
     RDKit          2D

 26 30  0  0  1  0  0  0  0  0999 V2000
    0.7032    1.9809    0.0000 C   0  0  0  0  0  0  0  0  0  0  0  0
    0.9234    1.1858    0.0000 C   0  0  0  0  0  0  0  0  0  0  0  0
    1.7221    0.9791    0.0000 C   0  0  0  0  0  0  0  0  0  0  0  0
    1.9424    0.1841    0.0000 C   0  0  0  0  0  0  0  0  0  0  0  0
    1.3640   -0.4042    0.0000 C   0  0  0  0  0  0  0  0  0  0  0  0
    1.7448   -1.1361    0.0000 N   0  0  0  0  0  0  0  0  0  0  0  0
    2.5585   -1.0001    0.0000 C   0  0  0  0  0  0  0  0  0  0  0  0
    2.6807   -0.1842    0.0000 C   0  0  0  0  0  0  0  0  0  0  0  0
    3.4483    0.1180    0.0000 C   0  0  0  0  0  0  0  0  0  0  0  0
    4.0939   -0.3958    0.0000 C   0  0  0  0  0  0  0  0  0  0  0  0
    4.8615   -0.0936    0.0000 F   0  0  0  0  0  0  0  0  0  0  0  0
    3.9717   -1.2117    0.0000 C   0  0  0  0  0  0  0  0  0  0  0  0
    3.2041   -1.5139    0.0000 C   0  0  0  0  0  0  0  0  0  0  0  0
    4.6173   -1.7254    0.0000 Cl  0  0  0  0  0  0  0  0  0  0  0  0
    0.5654   -0.1975    0.0000 C   0  0  0  0  0  0  0  0  0  0  0  0
    0.3451    0.5975    0.0000 N   0  0  0  0  0  0  0  0  0  0  0  0
   -0.2506   -0.0754    0.0000 C   0  0  0  0  0  0  0  0  0  0  0  0
   -0.6313    0.6565    0.0000 O   0  0  0  0  0  0  0  0  0  0  0  0
   -0.6188   -0.8136    0.0000 N   0  0  0  0  0  0  0  0  0  0  0  0
   -0.0305   -1.3920    0.0000 C   0  0  0  0  0  0  0  0  0  0  0  0
    0.7013   -1.0112    0.0000 C   0  0  0  0  0  0  0  0  0  0  0  0
    1.3970   -1.4546    0.0000 C   0  0  0  0  0  0  0  0  0  0  0  0
    1.3609   -2.2789    0.0000 C   0  0  0  0  0  0  0  0  0  0  0  0
    2.0566   -2.7223    0.0000 Cl  0  0  0  0  0  0  0  0  0  0  0  0
    0.6290   -2.6596    0.0000 C   0  0  0  0  0  0  0  0  0  0  0  0
   -0.0667   -2.2162    0.0000 C   0  0  0  0  0  0  0  0  0  0  0  0
  2  1  1  1
  2  3  1  0
  3  4  1  0
  4  5  2  0
  5  6  1  0
  6  7  1  0
  7  8  2  0
  4  8  1  0
  8  9  1  0
  9 10  2  0
 10 11  1  0
 10 12  1  0
 12 13  2  0
  7 13  1  0
 12 14  1  0
 15  5  1  6
 15 16  1  0
  2 16  1  0
 15 17  1  0
 17 18  2  0
 17 19  1  0
 19 20  1  0
 20 21  2  0
 15 21  1  0
 21 22  1  0
 22 23  2  0
 23 24  1  0
 23 25  1  0
 25 26  2  0
 20 26  1  0
M  END
>  <IC50>  (40) 
0.00119236363636

>  <NCGC_ID>  (40) 
NCGC00263785

>  <Name>  (40) 
NITD609

>  <PRIMARY_MOA>  (40) 
Inhibits protein synthesis

>  <StandardizerResult>  (40) 
Tautomerize (ID: Tautomerize)
Mesomerize (ID: Mesomerize)

>  <pIC50>  (40) 
2.92359127716

$$$$
NCGC00264106
     RDKit          2D

 27 28  0  0  1  0  0  0  0  0999 V2000
   -2.4908    2.2593    0.0000 C   0  0  0  0  0  0  0  0  0  0  0  0
   -1.6703    2.1731    0.0000 C   0  0  0  0  0  0  0  0  0  0  0  0
   -1.3348    1.4194    0.0000 C   0  0  0  0  0  0  0  0  0  0  0  0
   -0.5143    1.3332    0.0000 C   0  0  0  0  0  0  0  0  0  0  0  0
   -0.1787    0.5795    0.0000 C   0  0  0  0  0  0  0  0  0  0  0  0
    0.6282    0.4080    0.0000 C   0  0  0  0  0  0  0  0  0  0  0  0
    0.7145   -0.4125    0.0000 C   0  0  0  0  0  0  0  0  0  0  0  0
   -0.0392   -0.7481    0.0000 N   0  0  0  0  0  0  0  0  0  0  0  0
   -0.2107   -1.5550    0.0000 C   0  0  0  0  0  0  0  0  0  0  0  0
   -0.5912   -0.1350    0.0000 C   0  0  0  0  0  0  0  0  0  0  0  0
    1.4289   -0.8250    0.0000 C   0  0  0  0  0  0  0  0  0  0  0  0
    2.1434   -0.4125    0.0000 O   0  0  0  0  0  0  0  0  0  0  0  0
    1.4289   -1.6500    0.0000 N   0  0  0  0  0  0  0  0  0  0  0  0
    2.1434   -2.0625    0.0000 C   0  0  0  0  0  0  0  0  0  0  0  0
    2.8579   -1.6500    0.0000 C   0  0  0  0  0  0  0  0  0  0  0  0
    2.8579   -0.8250    0.0000 C   0  0  0  0  0  0  0  0  0  0  0  0
    3.5724   -2.0625    0.0000 Cl  0  0  0  0  0  0  0  0  0  0  0  0
    2.1434   -2.8875    0.0000 C   0  0  0  0  0  0  0  0  0  0  0  0
    2.8579   -3.3000    0.0000 O   0  0  0  0  0  0  0  0  0  0  0  0
    2.8579   -4.1250    0.0000 C   0  0  0  0  0  0  0  0  0  0  0  0
    3.5724   -4.5375    0.0000 S   0  0  0  0  0  0  0  0  0  0  0  0
    2.1434   -4.5375    0.0000 C   0  0  0  0  0  0  0  0  0  0  0  0
    2.1434   -5.3625    0.0000 O   0  0  0  0  0  0  0  0  0  0  0  0
    1.4289   -4.1250    0.0000 C   0  0  0  0  0  0  0  0  0  0  0  0
    0.7145   -4.5375    0.0000 O   0  0  0  0  0  0  0  0  0  0  0  0
    1.4289   -3.3000    0.0000 C   0  0  0  0  0  0  0  0  0  0  0  0
    0.7145   -2.8875    0.0000 O   0  0  0  0  0  0  0  0  0  0  0  0
  1  2  1  0
  2  3  1  0
  3  4  1  0
  5  4  1  6
  5  6  1  0
  6  7  1  0
  7  8  1  0
  8  9  1  0
  8 10  1  0
  5 10  1  0
  7 11  1  1
 11 12  2  0
 11 13  1  0
 13 14  1  0
 15 14  1  6
 15 16  1  0
 15 17  1  0
 18 14  1  1
 18 19  1  0
 19 20  1  0
 20 21  1  6
 20 22  1  0
 22 23  1  6
 22 24  1  0
 24 25  1  1
 24 26  1  0
 18 26  1  0
 26 27  1  1
M  END
>  <IC50>  (41) 
10.6381248148

>  <NCGC_ID>  (41) 
NCGC00264106

>  <Name>  (41) 
Clindamycin

>  <PRIMARY_MOA>  (41) 
Antibiotic, Protein synthesis (50S rRNA) inhibitor

>  <StandardizerResult>  (41) 
Tautomerize (ID: Tautomerize)
Mesomerize (ID: Mesomerize)

>  <pIC50>  (41) 
-1.0268650815

$$$$
NCGC00264109
     RDKit          2D

 30 31  0  0  0  0  0  0  0  0999 V2000
    4.2868   -6.6000    0.0000 C   0  0  0  0  0  0  0  0  0  0  0  0
    5.0013   -6.1875    0.0000 C   0  0  0  0  0  0  0  0  0  0  0  0
    5.7158   -6.6000    0.0000 C   0  0  0  0  0  0  0  0  0  0  0  0
    6.4302   -6.1875    0.0000 C   0  0  0  0  0  0  0  0  0  0  0  0
    7.1447   -6.6000    0.0000 C   0  0  0  0  0  0  0  0  0  0  0  0
    7.8592   -6.1875    0.0000 C   0  0  0  0  0  0  0  0  0  0  0  0
    8.5737   -6.6000    0.0000 C   0  0  0  0  0  0  0  0  0  0  0  0
    9.2881   -6.1875    0.0000 C   0  0  0  0  0  0  0  0  0  0  0  0
   10.0026   -6.6000    0.0000 C   0  0  0  0  0  0  0  0  0  0  0  0
   10.7171   -6.1875    0.0000 C   0  0  0  0  0  0  0  0  0  0  0  0
   11.4315   -6.6000    0.0000 O   0  0  0  0  0  0  0  0  0  0  0  0
   12.1460   -6.1875    0.0000 C   0  0  0  0  0  0  0  0  0  0  0  0
   12.1460   -5.3625    0.0000 C   0  0  0  0  0  0  0  0  0  0  0  0
   11.4315   -4.9500    0.0000 O   0  0  0  0  0  0  0  0  0  0  0  0
   10.7171   -5.3625    0.0000 C   0  0  0  0  0  0  0  0  0  0  0  0
   10.0026   -4.9500    0.0000 C   0  0  0  0  0  0  0  0  0  0  0  0
   12.8605   -4.9500    0.0000 C   0  0  0  0  0  0  0  0  0  0  0  0
   13.5749   -5.3625    0.0000 C   0  0  0  0  0  0  0  0  0  0  0  0
   14.2894   -4.9500    0.0000 N   0  0  0  0  0  0  0  0  0  0  0  0
   15.0039   -5.3625    0.0000 C   0  0  0  0  0  0  0  0  0  0  0  0
   15.0039   -6.1875    0.0000 C   0  0  0  0  0  0  0  0  0  0  0  0
   15.7184   -6.6000    0.0000 C   0  0  0  0  0  0  0  0  0  0  0  0
   15.7184   -7.4250    0.0000 O   0  0  0  0  0  0  0  0  0  0  0  0
   16.4328   -6.1875    0.0000 O   0  0  0  0  0  0  0  0  0  0  0  0
   17.1473   -6.6000    0.0000 C   0  0  0  0  0  0  0  0  0  0  0  0
   17.8618   -6.1875    0.0000 C   0  0  0  0  0  0  0  0  0  0  0  0
   14.2894   -6.6000    0.0000 C   0  0  0  0  0  0  0  0  0  0  0  0
   14.2894   -7.4250    0.0000 O   0  0  0  0  0  0  0  0  0  0  0  0
   13.5749   -6.1875    0.0000 C   0  0  0  0  0  0  0  0  0  0  0  0
   12.8605   -6.6000    0.0000 C   0  0  0  0  0  0  0  0  0  0  0  0
  1  2  1  0
  2  3  1  0
  3  4  1  0
  4  5  1  0
  5  6  1  0
  6  7  1  0
  7  8  1  0
  8  9  1  0
  9 10  1  0
 10 11  1  0
 11 12  1  0
 12 13  2  0
 13 14  1  0
 14 15  1  0
 15 16  1  0
 13 17  1  0
 17 18  2  0
 18 19  1  0
 19 20  2  0
 20 21  1  0
 21 22  1  0
 22 23  2  0
 22 24  1  0
 24 25  1  0
 25 26  1  0
 21 27  2  0
 27 28  1  0
 27 29  1  0
 18 29  1  0
 29 30  2  0
 12 30  1  0
M  END
>  <IC50>  (42) 
0.966225218182

>  <NCGC_ID>  (42) 
NCGC00264109

>  <Name>  (42) 
Decoquinate

>  <PRIMARY_MOA>  (42) 
Antiprotozoal agent

>  <StandardizerResult>  (42) 
Tautomerize (ID: Tautomerize)
Mesomerize (ID: Mesomerize)

>  <pIC50>  (42) 
0.0149216317488

$$$$
NCGC00273480
     RDKit          2D

 22 24  0  0  1  0  0  0  0  0999 V2000
    0.7145   -3.7125    0.0000 O   0  0  0  0  0  0  0  0  0  0  0  0
    0.0000   -4.1250    0.0000 C   0  0  0  0  0  0  0  0  0  0  0  0
    0.0000   -4.9500    0.0000 C   0  0  0  0  0  0  0  0  0  0  0  0
   -0.7145   -5.3625    0.0000 C   0  0  0  0  0  0  0  0  0  0  0  0
   -1.4289   -4.9500    0.0000 C   0  0  0  0  0  0  0  0  0  0  0  0
   -1.4289   -4.1250    0.0000 N   0  0  0  0  0  0  0  0  0  0  0  0
   -0.7145   -3.7125    0.0000 C   0  0  0  0  0  0  0  0  0  0  0  0
   -0.7145   -2.8875    0.0000 C   0  0  0  0  0  0  0  0  0  0  0  0
    0.0000   -2.4750    0.0000 C   0  0  0  0  0  0  0  0  0  0  0  0
    0.7145   -2.8875    0.0000 O   0  0  0  0  0  0  0  0  0  0  0  0
    0.0000   -1.6500    0.0000 C   0  0  0  0  0  0  0  0  0  0  0  0
    0.7145   -1.2375    0.0000 N   0  0  0  0  0  0  0  0  0  0  0  0
    0.7145   -0.4125    0.0000 C   0  0  0  0  0  0  0  0  0  0  0  0
    1.4289    0.0000    0.0000 N   0  0  0  0  0  0  0  0  0  0  0  0
    2.1434   -0.4125    0.0000 C   0  0  0  0  0  0  0  0  0  0  0  0
    2.8579    0.0000    0.0000 C   0  0  0  0  0  0  0  0  0  0  0  0
    3.5724   -0.4125    0.0000 C   0  0  0  0  0  0  0  0  0  0  0  0
    3.5724   -1.2375    0.0000 C   0  0  0  0  0  0  0  0  0  0  0  0
    2.8579   -1.6500    0.0000 C   0  0  0  0  0  0  0  0  0  0  0  0
    2.1434   -1.2375    0.0000 C   0  0  0  0  0  0  0  0  0  0  0  0
    1.4289   -1.6500    0.0000 C   0  0  0  0  0  0  0  0  0  0  0  0
    1.4289   -2.4750    0.0000 O   0  0  0  0  0  0  0  0  0  0  0  0
  2  1  1  1
  2  3  1  0
  3  4  1  0
  4  5  1  0
  5  6  1  0
  6  7  1  0
  2  7  1  0
  7  8  1  6
  8  9  1  0
  9 10  2  0
  9 11  1  0
 11 12  1  0
 12 13  1  0
 13 14  2  0
 14 15  1  0
 15 16  2  0
 16 17  1  0
 17 18  2  0
 18 19  1  0
 19 20  2  0
 15 20  1  0
 20 21  1  0
 12 21  1  0
 21 22  2  0
M  END
>  <IC50>  (43) 
0.00442816363636

>  <NCGC_ID>  (43) 
NCGC00273480

>  <Name>  (43) 
Febrifugine

>  <PRIMARY_MOA>  (43) 
inhibition of glutamyl-prolyl-tRNA synthetase (EPRS)

>  <StandardizerResult>  (43) 
Tautomerize (ID: Tautomerize)
Mesomerize (ID: Mesomerize)

>  <pIC50>  (43) 
2.35377633877

$$$$
NCGC00344515
     RDKit          2D

 37 42  0  0  0  0  0  0  0  0999 V2000
   -2.1434    9.4875    0.0000 Cl  0  0  0  0  0  0  0  0  0  0  0  0
   -2.1434    8.6625    0.0000 C   0  0  0  0  0  0  0  0  0  0  0  0
   -2.8579    8.2500    0.0000 C   0  0  0  0  0  0  0  0  0  0  0  0
   -2.8579    7.4250    0.0000 C   0  0  0  0  0  0  0  0  0  0  0  0
   -2.1434    7.0125    0.0000 C   0  0  0  0  0  0  0  0  0  0  0  0
   -1.4289    7.4250    0.0000 C   0  0  0  0  0  0  0  0  0  0  0  0
   -1.4289    8.2500    0.0000 C   0  0  0  0  0  0  0  0  0  0  0  0
   -2.1434    6.1875    0.0000 C   0  0  0  0  0  0  0  0  0  0  0  0
   -2.8579    5.7750    0.0000 C   0  0  0  0  0  0  0  0  0  0  0  0
   -3.5724    6.1875    0.0000 C   0  0  0  0  0  0  0  0  0  0  0  0
   -3.5724    7.0125    0.0000 N   0  0  0  0  0  0  0  0  0  0  0  0
   -1.4289    5.7750    0.0000 N   0  0  0  0  0  0  0  0  0  0  0  0
   -0.7145    6.1875    0.0000 C   0  0  0  0  0  0  0  0  0  0  0  0
   -0.0000    5.7750    0.0000 C   0  0  0  0  0  0  0  0  0  0  0  0
   -0.0000    4.9500    0.0000 N   0  0  0  0  0  0  0  0  0  0  0  0
    0.7145    4.5375    0.0000 C   0  0  0  0  0  0  0  0  0  0  0  0
    0.7145    3.7125    0.0000 C   0  0  0  0  0  0  0  0  0  0  0  0
    1.4289    3.3000    0.0000 C   0  0  0  0  0  0  0  0  0  0  0  0
    1.4289    2.4750    0.0000 N   0  0  0  0  0  0  0  0  0  0  0  0
    2.1434    2.0625    0.0000 C   0  0  0  0  0  0  0  0  0  0  0  0
    2.1434    1.2375    0.0000 C   0  0  0  0  0  0  0  0  0  0  0  0
    1.4289    0.8250    0.0000 N   0  0  0  0  0  0  0  0  0  0  0  0
    0.7145    1.2375    0.0000 C   0  0  0  0  0  0  0  0  0  0  0  0
    0.7145    2.0625    0.0000 C   0  0  0  0  0  0  0  0  0  0  0  0
    1.4289    0.0000    0.0000 C   0  0  0  0  0  0  0  0  0  0  0  0
    2.1434   -0.4125    0.0000 C   0  0  0  0  0  0  0  0  0  0  0  0
    2.8579    0.0000    0.0000 C   0  0  0  0  0  0  0  0  0  0  0  0
    3.5724   -0.4125    0.0000 C   0  0  0  0  0  0  0  0  0  0  0  0
    3.5724   -1.2375    0.0000 C   0  0  0  0  0  0  0  0  0  0  0  0
    2.8579   -1.6500    0.0000 C   0  0  0  0  0  0  0  0  0  0  0  0
    2.1434   -1.2375    0.0000 C   0  0  0  0  0  0  0  0  0  0  0  0
    1.4289   -1.6500    0.0000 N   0  0  0  0  0  0  0  0  0  0  0  0
    0.7145   -1.2375    0.0000 C   0  0  0  0  0  0  0  0  0  0  0  0
    0.7145   -0.4125    0.0000 C   0  0  0  0  0  0  0  0  0  0  0  0
    4.2868   -1.6500    0.0000 Cl  0  0  0  0  0  0  0  0  0  0  0  0
   -0.7145    4.5375    0.0000 C   0  0  0  0  0  0  0  0  0  0  0  0
   -1.4289    4.9500    0.0000 C   0  0  0  0  0  0  0  0  0  0  0  0
  1  2  1  0
  2  3  2  0
  3  4  1  0
  4  5  2  0
  5  6  1  0
  6  7  2  0
  2  7  1  0
  5  8  1  0
  8  9  2  0
  9 10  1  0
 10 11  2  0
  4 11  1  0
  8 12  1  0
 12 13  1  0
 13 14  1  0
 14 15  1  0
 15 16  1  0
 16 17  1  0
 17 18  1  0
 18 19  1  0
 19 20  1  0
 20 21  1  0
 21 22  1  0
 22 23  1  0
 23 24  1  0
 19 24  1  0
 22 25  1  0
 25 26  1  0
 26 27  2  0
 27 28  1  0
 28 29  2  0
 29 30  1  0
 30 31  2  0
 26 31  1  0
 31 32  1  0
 32 33  2  0
 33 34  1  0
 25 34  2  0
 29 35  1  0
 15 36  1  0
 36 37  1  0
 12 37  1  0
M  END
>  <IC50>  (44) 
0.0138117636364

>  <NCGC_ID>  (44) 
NCGC00344515

>  <Name>  (44) 
Piperaquine

>  <PRIMARY_MOA>  (44) 
antimalarial agents

>  <StandardizerResult>  (44) 
Tautomerize (ID: Tautomerize)
Mesomerize (ID: Mesomerize)

>  <pIC50>  (44) 
1.85975086243

$$$$
NCGC00345447
     RDKit          2D

 11 12  0  0  0  0  0  0  0  0999 V2000
    3.2789    2.0625    0.0000 C   0  0  0  0  0  0  0  0  0  0  0  0
    3.2789    1.2375    0.0000 N   0  0  0  0  0  0  0  0  0  0  0  0
    3.9934    0.8250    0.0000 C   0  0  0  0  0  0  0  0  0  0  0  0
    3.9934    0.0000    0.0000 N   0  0  0  0  0  0  0  0  0  0  0  0
    3.2789   -0.4125    0.0000 C   0  0  0  0  0  0  0  0  0  0  0  0
    2.5645    0.0000    0.0000 C   0  0  0  0  0  0  0  0  0  0  0  0
    1.7798   -0.2549    0.0000 N   0  0  0  0  0  0  0  0  0  0  0  0
    1.2949    0.4125    0.0000 C   0  0  0  0  0  0  0  0  0  0  0  0
    1.7798    1.0799    0.0000 N   0  0  0  0  0  0  0  0  0  0  0  0
    2.5645    0.8250    0.0000 C   0  0  0  0  0  0  0  0  0  0  0  0
    3.2789   -1.2375    0.0000 N   0  0  0  0  0  0  0  0  0  0  0  0
  1  2  1  0
  2  3  1  0
  3  4  2  0
  4  5  1  0
  5  6  2  0
  6  7  1  0
  7  8  2  0
  8  9  1  0
  9 10  2  0
  2 10  1  0
  6 10  1  0
  5 11  1  0
M  END
>  <IC50>  (45) 
741.635551241

>  <NCGC_ID>  (45) 
NCGC00345447

>  <Name>  (45) 
3-Methyladenine

>  <PRIMARY_MOA>  (45) 
PI3K Inhibitor

>  <StandardizerResult>  (45) 
Tautomerize (ID: Tautomerize)
Mesomerize (ID: Mesomerize)

>  <pIC50>  (45) 
-2.87019054009

$$$$
NCGC00345829
     RDKit          2D

 29 32  0  0  0  0  0  0  0  0999 V2000
   -3.5724    1.2375    0.0000 C   0  0  0  0  0  0  0  0  0  0  0  0
   -2.8579    0.8250    0.0000 S   0  0  0  0  0  0  0  0  0  0  0  0
   -2.8579    0.0000    0.0000 C   0  0  0  0  0  0  0  0  0  0  0  0
   -2.1434   -0.4125    0.0000 C   0  0  0  0  0  0  0  0  0  0  0  0
   -2.1434   -1.2375    0.0000 C   0  0  0  0  0  0  0  0  0  0  0  0
   -2.8579   -1.6500    0.0000 C   0  0  0  0  0  0  0  0  0  0  0  0
   -3.5724   -1.2375    0.0000 C   0  0  0  0  0  0  0  0  0  0  0  0
   -3.5724   -0.4125    0.0000 C   0  0  0  0  0  0  0  0  0  0  0  0
   -1.4289   -1.6500    0.0000 N   0  0  0  0  0  0  0  0  0  0  0  0
   -0.7145   -1.2375    0.0000 C   0  0  0  0  0  0  0  0  0  0  0  0
    0.0000   -1.6500    0.0000 N   0  0  0  0  0  0  0  0  0  0  0  0
    0.7145   -1.2375    0.0000 C   0  0  0  0  0  0  0  0  0  0  0  0
    0.7145   -0.4125    0.0000 C   0  0  0  0  0  0  0  0  0  0  0  0
    0.0000   -0.0000    0.0000 C   0  0  0  0  0  0  0  0  0  0  0  0
   -0.7145   -0.4125    0.0000 N   0  0  0  0  0  0  0  0  0  0  0  0
    1.4289   -0.0000    0.0000 C   0  0  0  0  0  0  0  0  0  0  0  0
    2.1434   -0.4125    0.0000 C   0  0  0  0  0  0  0  0  0  0  0  0
    2.1434   -1.2375    0.0000 C   0  0  0  0  0  0  0  0  0  0  0  0
    2.8579   -1.6500    0.0000 O   0  0  0  0  0  0  0  0  0  0  0  0
    1.4289   -1.6500    0.0000 N   0  0  0  0  0  0  0  0  0  0  0  0
    1.4289   -2.4750    0.0000 C   0  0  0  0  0  0  0  0  0  0  0  0
    2.8579   -0.0000    0.0000 C   0  0  0  0  0  0  0  0  0  0  0  0
    2.8579    0.8250    0.0000 C   0  0  0  0  0  0  0  0  0  0  0  0
    2.1434    1.2375    0.0000 Cl  0  0  0  0  0  0  0  0  0  0  0  0
    3.5724    1.2375    0.0000 C   0  0  0  0  0  0  0  0  0  0  0  0
    4.2868    0.8250    0.0000 C   0  0  0  0  0  0  0  0  0  0  0  0
    4.2868   -0.0000    0.0000 C   0  0  0  0  0  0  0  0  0  0  0  0
    3.5724   -0.4125    0.0000 C   0  0  0  0  0  0  0  0  0  0  0  0
    3.5724   -1.2375    0.0000 Cl  0  0  0  0  0  0  0  0  0  0  0  0
  1  2  1  0
  2  3  1  0
  3  4  2  0
  4  5  1  0
  5  6  2  0
  6  7  1  0
  7  8  2  0
  3  8  1  0
  5  9  1  0
  9 10  1  0
 10 11  2  0
 11 12  1  0
 12 13  2  0
 13 14  1  0
 14 15  2  0
 10 15  1  0
 13 16  1  0
 16 17  2  0
 17 18  1  0
 18 19  2  0
 18 20  1  0
 12 20  1  0
 20 21  1  0
 17 22  1  0
 22 23  2  0
 23 24  1  0
 23 25  1  0
 25 26  2  0
 26 27  1  0
 27 28  2  0
 22 28  1  0
 28 29  1  0
M  END
>  <IC50>  (46) 
1.21031516981

>  <NCGC_ID>  (46) 
NCGC00345829

>  <Name>  (46) 
PD-173955

>  <PRIMARY_MOA>  (46) 
cSRC inhibitor

>  <StandardizerResult>  (46) 
Tautomerize (ID: Tautomerize)
Mesomerize (ID: Mesomerize)

>  <pIC50>  (46) 
-0.0828984766692

$$$$
NCGC00346484
     RDKit          2D

 30 34  0  0  0  0  0  0  0  0999 V2000
   -1.8659    0.0165    0.0000 F   0  0  0  0  0  0  0  0  0  0  0  0
   -1.4534   -0.6979    0.0000 C   0  0  0  0  0  0  0  0  0  0  0  0
   -1.8659   -1.4124    0.0000 F   0  0  0  0  0  0  0  0  0  0  0  0
   -0.6284   -0.6979    0.0000 C   0  0  0  0  0  0  0  0  0  0  0  0
   -0.1435   -1.3654    0.0000 N   0  0  0  0  0  0  0  0  0  0  0  0
    0.6411   -1.1104    0.0000 C   0  0  0  0  0  0  0  0  0  0  0  0
    0.6411   -0.2854    0.0000 C   0  0  0  0  0  0  0  0  0  0  0  0
    1.3556    0.1271    0.0000 C   0  0  0  0  0  0  0  0  0  0  0  0
    2.0701   -0.2854    0.0000 C   0  0  0  0  0  0  0  0  0  0  0  0
    2.0701   -1.1104    0.0000 C   0  0  0  0  0  0  0  0  0  0  0  0
    1.3556   -1.5229    0.0000 C   0  0  0  0  0  0  0  0  0  0  0  0
   -0.1435   -0.0305    0.0000 N   0  0  0  0  0  0  0  0  0  0  0  0
   -0.3984    0.7541    0.0000 C   0  0  0  0  0  0  0  0  0  0  0  0
   -1.2054    0.9256    0.0000 N   0  0  0  0  0  0  0  0  0  0  0  0
   -1.4604    1.7103    0.0000 C   0  0  0  0  0  0  0  0  0  0  0  0
   -0.9083    2.3234    0.0000 N   0  0  0  0  0  0  0  0  0  0  0  0
   -0.1014    2.1518    0.0000 C   0  0  0  0  0  0  0  0  0  0  0  0
    0.1536    1.3672    0.0000 N   0  0  0  0  0  0  0  0  0  0  0  0
    0.4507    2.7649    0.0000 N   0  0  0  0  0  0  0  0  0  0  0  0
    0.1957    3.5496    0.0000 C   0  0  0  0  0  0  0  0  0  0  0  0
    0.7478    4.1626    0.0000 C   0  0  0  0  0  0  0  0  0  0  0  0
    1.5547    3.9911    0.0000 O   0  0  0  0  0  0  0  0  0  0  0  0
    1.8097    3.2065    0.0000 C   0  0  0  0  0  0  0  0  0  0  0  0
    1.2577    2.5934    0.0000 C   0  0  0  0  0  0  0  0  0  0  0  0
   -2.2673    1.8818    0.0000 N   0  0  0  0  0  0  0  0  0  0  0  0
   -2.8194    1.2687    0.0000 C   0  0  0  0  0  0  0  0  0  0  0  0
   -3.6263    1.4402    0.0000 C   0  0  0  0  0  0  0  0  0  0  0  0
   -3.8813    2.2248    0.0000 O   0  0  0  0  0  0  0  0  0  0  0  0
   -3.3292    2.8379    0.0000 C   0  0  0  0  0  0  0  0  0  0  0  0
   -2.5223    2.6664    0.0000 C   0  0  0  0  0  0  0  0  0  0  0  0
  1  2  1  0
  2  3  1  0
  2  4  1  0
  4  5  2  0
  5  6  1  0
  6  7  2  0
  7  8  1  0
  8  9  2  0
  9 10  1  0
 10 11  2  0
  6 11  1  0
  7 12  1  0
  4 12  1  0
 12 13  1  0
 13 14  2  0
 14 15  1  0
 15 16  2  0
 16 17  1  0
 17 18  2  0
 13 18  1  0
 17 19  1  0
 19 20  1  0
 20 21  1  0
 21 22  1  0
 22 23  1  0
 23 24  1  0
 19 24  1  0
 15 25  1  0
 25 26  1  0
 26 27  1  0
 27 28  1  0
 28 29  1  0
 29 30  1  0
 25 30  1  0
M  END
>  <IC50>  (47) 
0.555785327273

>  <NCGC_ID>  (47) 
NCGC00346484

>  <Name>  (47) 
ZSTK-474

>  <PRIMARY_MOA>  (47) 
PI3K Inhibitor

>  <StandardizerResult>  (47) 
Tautomerize (ID: Tautomerize)
Mesomerize (ID: Mesomerize)

>  <pIC50>  (47) 
0.255092922777

$$$$
NCGC00346487
     RDKit          2D

 29 32  0  0  0  0  0  0  0  0999 V2000
    0.8838   -2.1500    0.0000 C   0  0  0  0  0  0  0  0  0  0  0  0
    1.1387   -1.3654    0.0000 N   0  0  0  0  0  0  0  0  0  0  0  0
    0.6538   -0.6979    0.0000 C   0  0  0  0  0  0  0  0  0  0  0  0
    1.1387   -0.0305    0.0000 C   0  0  0  0  0  0  0  0  0  0  0  0
    0.8838    0.7541    0.0000 C   0  0  0  0  0  0  0  0  0  0  0  0
    0.0768    0.9256    0.0000 N   0  0  0  0  0  0  0  0  0  0  0  0
   -0.1781    1.7103    0.0000 C   0  0  0  0  0  0  0  0  0  0  0  0
   -0.9851    1.8818    0.0000 C   0  0  0  0  0  0  0  0  0  0  0  0
   -1.5371    1.2687    0.0000 C   0  0  0  0  0  0  0  0  0  0  0  0
   -2.3441    1.4402    0.0000 C   0  0  0  0  0  0  0  0  0  0  0  0
   -2.5990    2.2248    0.0000 N   0  0  0  0  0  0  0  0  0  0  0  0
   -2.0470    2.8379    0.0000 C   0  0  0  0  0  0  0  0  0  0  0  0
   -1.2400    2.6664    0.0000 C   0  0  0  0  0  0  0  0  0  0  0  0
   -3.4060    2.3964    0.0000 C   0  0  0  0  0  0  0  0  0  0  0  0
   -3.9580    1.7833    0.0000 N   0  0  0  0  0  0  0  0  0  0  0  0
   -4.7650    1.9548    0.0000 C   0  0  0  0  0  0  0  0  0  0  0  0
   -5.0200    2.7394    0.0000 C   0  0  0  0  0  0  0  0  0  0  0  0
   -4.4679    3.3525    0.0000 C   0  0  0  0  0  0  0  0  0  0  0  0
   -3.6610    3.1810    0.0000 N   0  0  0  0  0  0  0  0  0  0  0  0
   -5.8269    2.9110    0.0000 C   0  0  0  0  0  0  0  0  0  0  0  0
   -6.3790    2.2979    0.0000 O   0  0  0  0  0  0  0  0  0  0  0  0
   -6.0819    3.6956    0.0000 N   0  0  0  0  0  0  0  0  0  0  0  0
   -6.8888    3.8671    0.0000 O   0  0  0  0  0  0  0  0  0  0  0  0
    1.9233   -0.2854    0.0000 C   0  0  0  0  0  0  0  0  0  0  0  0
    2.6378    0.1271    0.0000 C   0  0  0  0  0  0  0  0  0  0  0  0
    3.3523   -0.2854    0.0000 C   0  0  0  0  0  0  0  0  0  0  0  0
    3.3523   -1.1104    0.0000 C   0  0  0  0  0  0  0  0  0  0  0  0
    2.6378   -1.5229    0.0000 C   0  0  0  0  0  0  0  0  0  0  0  0
    1.9233   -1.1104    0.0000 C   0  0  0  0  0  0  0  0  0  0  0  0
  1  2  1  0
  2  3  1  0
  3  4  2  0
  4  5  1  0
  5  6  1  0
  6  7  1  0
  7  8  1  0
  8  9  1  0
  9 10  1  0
 10 11  1  0
 11 12  1  0
 12 13  1  0
  8 13  1  0
 11 14  1  0
 14 15  2  0
 15 16  1  0
 16 17  2  0
 17 18  1  0
 18 19  2  0
 14 19  1  0
 17 20  1  0
 20 21  2  0
 20 22  1  0
 22 23  1  0
  4 24  1  0
 24 25  2  0
 25 26  1  0
 26 27  2  0
 27 28  1  0
 28 29  2  0
  2 29  1  0
 24 29  1  0
M  END
>  <IC50>  (48) 
0.00387118181818

>  <NCGC_ID>  (48) 
NCGC00346487

>  <Name>  (48) 
Quisinostat hydrochloride

>  <PRIMARY_MOA>  (48) 
HDAC1 Inhibitor

>  <StandardizerResult>  (48) 
Tautomerize (ID: Tautomerize)
Mesomerize (ID: Mesomerize)

>  <pIC50>  (48) 
2.41215643065

$$$$
NCGC00346509
     RDKit          2D

 24 27  0  0  0  0  0  0  0  0999 V2000
   -2.8407   -1.0462    0.0000 O   0  0  0  0  0  0  0  0  0  0  0  0
   -2.0202   -0.9600    0.0000 C   0  0  0  0  0  0  0  0  0  0  0  0
   -1.6077   -0.2455    0.0000 N   0  0  0  0  0  0  0  0  0  0  0  0
   -0.8007   -0.4170    0.0000 C   0  0  0  0  0  0  0  0  0  0  0  0
   -0.1876    0.1350    0.0000 O   0  0  0  0  0  0  0  0  0  0  0  0
   -0.7145   -1.2375    0.0000 C   0  0  0  0  0  0  0  0  0  0  0  0
   -1.4681   -1.5731    0.0000 S   0  0  0  0  0  0  0  0  0  0  0  0
    0.0000   -1.6500    0.0000 C   0  0  0  0  0  0  0  0  0  0  0  0
    0.7145   -1.2375    0.0000 C   0  0  0  0  0  0  0  0  0  0  0  0
    0.7145   -0.4125    0.0000 C   0  0  0  0  0  0  0  0  0  0  0  0
    1.4289    0.0000    0.0000 C   0  0  0  0  0  0  0  0  0  0  0  0
    2.1434   -0.4125    0.0000 C   0  0  0  0  0  0  0  0  0  0  0  0
    2.8579    0.0000    0.0000 N   0  0  0  0  0  0  0  0  0  0  0  0
    3.5724   -0.4125    0.0000 C   0  0  0  0  0  0  0  0  0  0  0  0
    3.5724   -1.2375    0.0000 C   0  0  0  0  0  0  0  0  0  0  0  0
    2.8579   -1.6500    0.0000 C   0  0  0  0  0  0  0  0  0  0  0  0
    2.8579   -2.4750    0.0000 C   0  0  0  0  0  0  0  0  0  0  0  0
    3.5724   -2.8875    0.0000 C   0  0  0  0  0  0  0  0  0  0  0  0
    3.5724   -3.7125    0.0000 C   0  0  0  0  0  0  0  0  0  0  0  0
    2.8579   -4.1250    0.0000 N   0  0  0  0  0  0  0  0  0  0  0  0
    2.1434   -3.7125    0.0000 C   0  0  0  0  0  0  0  0  0  0  0  0
    2.1434   -2.8875    0.0000 C   0  0  0  0  0  0  0  0  0  0  0  0
    2.1434   -1.2375    0.0000 C   0  0  0  0  0  0  0  0  0  0  0  0
    1.4289   -1.6500    0.0000 C   0  0  0  0  0  0  0  0  0  0  0  0
  1  2  2  0
  2  3  1  0
  3  4  1  0
  4  5  2  0
  4  6  1  0
  6  7  1  0
  2  7  1  0
  6  8  2  3
  8  9  1  0
  9 10  2  0
 10 11  1  0
 11 12  2  0
 12 13  1  0
 13 14  2  0
 14 15  1  0
 15 16  2  0
 16 17  1  0
 17 18  2  0
 18 19  1  0
 19 20  2  0
 20 21  1  0
 21 22  2  0
 17 22  1  0
 16 23  1  0
 12 23  1  0
 23 24  2  0
  9 24  1  0
M  END
>  <IC50>  (49) 
112.074957764

>  <NCGC_ID>  (49) 
NCGC00346509

>  <Name>  (49) 
GSK-615

>  <PRIMARY_MOA>  (49) 
PI3Kalpha inhibitor

>  <StandardizerResult>  (49) 
Tautomerize (ID: Tautomerize)
Mesomerize (ID: Mesomerize)

>  <pIC50>  (49) 
-2.04950858387

$$$$
NCGC00346524
     RDKit          2D

 62 67  0  0  1  0  0  0  0  0999 V2000
   -3.9149    6.6498    0.0000 C   0  0  0  0  0  0  0  0  0  0  0  0
   -3.2474    6.1649    0.0000 O   0  0  0  0  0  0  0  0  0  0  0  0
   -3.3337    5.3444    0.0000 C   0  0  0  0  0  0  0  0  0  0  0  0
   -2.6662    4.8595    0.0000 C   0  0  0  0  0  0  0  0  0  0  0  0
   -2.7525    4.0390    0.0000 C   0  0  0  0  0  0  0  0  0  0  0  0
   -3.5061    3.7035    0.0000 C   0  0  0  0  0  0  0  0  0  0  0  0
   -4.1736    4.1884    0.0000 O   0  0  0  0  0  0  0  0  0  0  0  0
   -4.0873    5.0089    0.0000 C   0  0  0  0  0  0  0  0  0  0  0  0
   -4.7548    5.4938    0.0000 C   0  0  0  0  0  0  0  0  0  0  0  0
   -3.5924    2.8830    0.0000 O   0  0  0  0  0  0  0  0  0  0  0  0
   -2.9249    2.3981    0.0000 C   0  0  0  0  0  0  0  0  0  0  0  0
   -2.1713    2.7336    0.0000 C   0  0  0  0  0  0  0  0  0  0  0  0
   -1.5038    2.2487    0.0000 C   0  0  0  0  0  0  0  0  0  0  0  0
   -1.5901    1.4282    0.0000 O   0  0  0  0  0  0  0  0  0  0  0  0
   -2.3437    1.0927    0.0000 C   0  0  0  0  0  0  0  0  0  0  0  0
   -1.7306    0.5406    0.0000 O   0  0  0  0  0  0  0  0  0  0  0  0
   -2.0662   -0.2130    0.0000 C   0  0  0  0  0  0  0  0  0  0  0  0
   -2.8867   -0.1268    0.0000 C   0  0  0  0  0  0  0  0  0  0  0  0
   -3.0582    0.6802    0.0000 C   0  0  0  0  0  0  0  0  0  0  0  0
   -3.8119    1.0157    0.0000 C   0  0  0  0  0  0  0  0  0  0  0  0
   -1.6537   -0.9275    0.0000 C   0  0  0  0  0  0  0  0  0  0  0  0
   -2.0662   -1.6420    0.0000 O   0  0  0  0  0  0  0  0  0  0  0  0
   -1.6537   -2.3565    0.0000 C   0  0  0  0  0  0  0  0  0  0  0  0
   -2.4289   -2.6386    0.0000 O   0  0  0  0  0  0  0  0  0  0  0  0
   -1.5104   -3.1689    0.0000 C   0  0  0  0  0  0  0  0  0  0  0  0
   -2.1424   -3.6992    0.0000 O   0  0  0  0  0  0  0  0  0  0  0  0
   -0.8287   -2.3565    0.0000 C   0  0  0  0  0  0  0  0  0  0  0  0
   -0.4162   -3.0709    0.0000 C   0  0  0  0  0  0  0  0  0  0  0  0
   -0.4162   -1.6420    0.0000 C   0  0  0  0  0  0  0  0  0  0  0  0
   -0.8287   -0.9275    0.0000 C   0  0  0  0  0  0  0  0  0  0  0  0
   -0.4162   -0.2130    0.0000 C   0  0  0  0  0  0  0  0  0  0  0  0
   -3.0112    1.5776    0.0000 C   0  0  0  0  0  0  0  0  0  0  0  0
   -3.8317    1.4913    0.0000 C   0  0  0  0  0  0  0  0  0  0  0  0
   -0.7501    2.5843    0.0000 C   0  0  0  0  0  0  0  0  0  0  0  0
   -0.4952    1.7996    0.0000 C   0  0  0  0  0  0  0  0  0  0  0  0
   -1.1626    3.2987    0.0000 C   0  0  0  0  0  0  0  0  0  0  0  0
   -0.6106    3.9118    0.0000 C   0  0  0  0  0  0  0  0  0  0  0  0
    0.1431    3.5763    0.0000 C   0  0  0  0  0  0  0  0  0  0  0  0
    0.1431    4.4013    0.0000 C   0  0  0  0  0  0  0  0  0  0  0  0
    0.8575    4.8138    0.0000 C   0  0  0  0  0  0  0  0  0  0  0  0
    0.8575    5.6388    0.0000 O   0  0  0  0  0  0  0  0  0  0  0  0
    1.5720    4.4013    0.0000 C   0  0  0  0  0  0  0  0  0  0  0  0
    2.2865    4.8138    0.0000 C   0  0  0  0  0  0  0  0  0  0  0  0
    1.5720    3.5763    0.0000 C   0  0  0  0  0  0  0  0  0  0  0  0
    0.8575    3.1638    0.0000 O   0  0  0  0  0  0  0  0  0  0  0  0
    2.2865    3.1638    0.0000 C   0  0  0  0  0  0  0  0  0  0  0  0
    2.2865    2.3388    0.0000 C   0  0  0  0  0  0  0  0  0  0  0  0
    3.0009    3.5763    0.0000 C   0  0  0  0  0  0  0  0  0  0  0  0
    3.7154    3.1638    0.0000 C   0  0  0  0  0  0  0  0  0  0  0  0
    3.7154    2.3388    0.0000 C   0  0  0  0  0  0  0  0  0  0  0  0
    4.4299    3.5763    0.0000 C   0  0  0  0  0  0  0  0  0  0  0  0
    4.4299    4.4013    0.0000 O   0  0  0  0  0  0  0  0  0  0  0  0
    5.1444    3.1638    0.0000 C   0  0  0  0  0  0  0  0  0  0  0  0
    5.1444    2.3388    0.0000 C   0  0  0  0  0  0  0  0  0  0  0  0
    5.8588    3.5763    0.0000 C   0  0  0  0  0  0  0  0  0  0  0  0
    6.5733    3.1638    0.0000 C   0  0  0  0  0  0  0  0  0  0  0  0
    6.5733    2.3388    0.0000 C   0  0  0  0  0  0  0  0  0  0  0  0
    7.2878    3.5763    0.0000 C   0  0  0  0  0  0  0  0  0  0  0  0
    7.2878    4.4013    0.0000 O   0  0  0  0  0  0  0  0  0  0  0  0
    8.0022    3.1638    0.0000 O   0  0  0  0  0  0  0  0  0  0  0  0
    8.7167    3.5763    0.0000 Na  0  0  0  0  0  1  0  0  0  0  0  0
    0.0568    2.7558    0.0000 O   0  0  0  0  0  0  0  0  0  0  0  0
  1  2  1  0
  3  2  1  1
  3  4  1  0
  4  5  1  0
  5  6  1  0
  6  7  1  0
  7  8  1  0
  3  8  1  0
  8  9  1  6
  6 10  1  0
 11 10  1  1
 11 12  1  0
 13 12  1  6
 13 14  1  0
 15 14  1  1
 15 16  1  0
 17 16  1  1
 17 18  1  0
 18 19  1  0
 15 19  1  0
 19 20  1  6
 17 21  1  0
 21 22  1  6
 22 23  1  0
 23 24  1  1
 23 25  1  0
 25 26  1  0
 23 27  1  0
 27 28  1  1
 27 29  1  0
 29 30  1  0
 21 30  1  0
 30 31  1  1
 15 32  1  0
 11 32  1  0
 32 33  1  6
 13 34  1  0
 34 35  1  1
 34 36  1  0
 36 37  1  0
 38 37  1  1
 38 39  1  0
 39 40  1  0
 40 41  1  6
 40 42  1  0
 42 43  1  1
 42 44  1  0
 44 45  1  0
 38 45  1  0
 44 46  1  1
 46 47  1  0
 46 48  2  3
 48 49  1  0
 49 50  1  0
 49 51  1  0
 51 52  2  0
 53 51  1  1
 53 54  1  0
 53 55  1  0
 56 55  1  1
 56 57  1  0
 56 58  1  0
 58 59  2  0
 58 60  1  0
 60 61  1  0
 38 62  1  0
 34 62  1  0
M  END
>  <IC50>  (50) 
0.000194636363636

>  <NCGC_ID>  (50) 
NCGC00346524

>  <Name>  (50) 
Nanchangmycin

>  <PRIMARY_MOA>  (50) 
Polyether Antibiotic

>  <StandardizerResult>  (50) 
Tautomerize (ID: Tautomerize)
Mesomerize (ID: Mesomerize)

>  <pIC50>  (50) 
3.71077601786

$$$$
NCGC00346536
     RDKit          2D

 24 25  0  0  0  0  0  0  0  0999 V2000
    1.4289    0.8250    0.0000 C   0  0  0  0  0  0  0  0  0  0  0  0
    1.4289   -0.0000    0.0000 C   0  0  0  0  0  0  0  0  0  0  0  0
    2.1434   -0.4125    0.0000 O   0  0  0  0  0  0  0  0  0  0  0  0
    0.7145   -0.4125    0.0000 N   0  0  0  0  0  0  0  0  0  0  0  0
    0.7145   -1.2375    0.0000 C   0  0  0  0  0  0  0  0  0  0  0  0
    1.3819   -1.7224    0.0000 N   0  0  0  0  0  0  0  0  0  0  0  0
    1.1270   -2.5070    0.0000 C   0  0  0  0  0  0  0  0  0  0  0  0
    0.3020   -2.5070    0.0000 C   0  0  0  0  0  0  0  0  0  0  0  0
    0.0470   -1.7224    0.0000 S   0  0  0  0  0  0  0  0  0  0  0  0
   -0.1830   -3.1745    0.0000 C   0  0  0  0  0  0  0  0  0  0  0  0
    0.1526   -3.9282    0.0000 C   0  0  0  0  0  0  0  0  0  0  0  0
   -0.3323   -4.5956    0.0000 C   0  0  0  0  0  0  0  0  0  0  0  0
   -1.1528   -4.5094    0.0000 C   0  0  0  0  0  0  0  0  0  0  0  0
   -1.6377   -5.1768    0.0000 Cl  0  0  0  0  0  0  0  0  0  0  0  0
   -1.4884   -3.7557    0.0000 C   0  0  0  0  0  0  0  0  0  0  0  0
   -1.0034   -3.0882    0.0000 C   0  0  0  0  0  0  0  0  0  0  0  0
    0.0032   -5.3493    0.0000 S   0  0  0  0  0  0  0  0  0  0  0  0
   -0.7504   -5.6848    0.0000 O   0  0  0  0  0  0  0  0  0  0  0  0
    0.7569   -5.0137    0.0000 O   0  0  0  0  0  0  0  0  0  0  0  0
    0.3388   -6.1029    0.0000 N   0  0  0  0  0  0  0  0  0  0  0  0
    1.1593   -6.1892    0.0000 C   0  0  0  0  0  0  0  0  0  0  0  0
    1.4948   -6.9429    0.0000 C   0  0  0  0  0  0  0  0  0  0  0  0
    2.3153   -7.0291    0.0000 O   0  0  0  0  0  0  0  0  0  0  0  0
    1.6119   -3.1745    0.0000 C   0  0  0  0  0  0  0  0  0  0  0  0
  1  2  1  0
  2  3  2  0
  2  4  1  0
  4  5  1  0
  5  6  2  0
  6  7  1  0
  7  8  2  0
  8  9  1  0
  5  9  1  0
  8 10  1  0
 10 11  2  0
 11 12  1  0
 12 13  2  0
 13 14  1  0
 13 15  1  0
 15 16  2  0
 10 16  1  0
 12 17  1  0
 17 18  2  0
 17 19  2  0
 17 20  1  0
 20 21  1  0
 21 22  1  0
 22 23  1  0
  7 24  1  0
M  END
>  <IC50>  (51) 
0.964067584906

>  <NCGC_ID>  (51) 
NCGC00346536

>  <Name>  (51) 
PIK-93

>  <PRIMARY_MOA>  (51) 
PI3K Inhibitor

>  <StandardizerResult>  (51) 
Tautomerize (ID: Tautomerize)
Mesomerize (ID: Mesomerize)

>  <pIC50>  (51) 
0.0158925192894

$$$$
NCGC00346634
     RDKit          2D

 37 43  0  0  0  0  0  0  0  0999 V2000
    2.7845   -2.6021    0.0000 C   0  0  0  0  0  0  0  0  0  0  0  0
    2.7845   -1.7771    0.0000 C   0  0  0  0  0  0  0  0  0  0  0  0
    3.4990   -1.3646    0.0000 N   0  0  0  0  0  0  0  0  0  0  0  0
    4.2135   -1.7771    0.0000 C   0  0  0  0  0  0  0  0  0  0  0  0
    4.2135   -2.6021    0.0000 C   0  0  0  0  0  0  0  0  0  0  0  0
    3.4990   -3.0146    0.0000 O   0  0  0  0  0  0  0  0  0  0  0  0
    3.4990   -0.5396    0.0000 C   0  0  0  0  0  0  0  0  0  0  0  0
    2.7845   -0.1271    0.0000 N   0  0  0  0  0  0  0  0  0  0  0  0
    2.7845    0.6979    0.0000 C   0  0  0  0  0  0  0  0  0  0  0  0
    3.4990    1.1104    0.0000 N   0  0  0  0  0  0  0  0  0  0  0  0
    4.2135    0.6979    0.0000 C   0  0  0  0  0  0  0  0  0  0  0  0
    4.2135   -0.1271    0.0000 C   0  0  0  0  0  0  0  0  0  0  0  0
    4.9981   -0.3820    0.0000 C   0  0  0  0  0  0  0  0  0  0  0  0
    5.4830    0.2854    0.0000 N   0  0  0  0  0  0  0  0  0  0  0  0
    4.9981    0.9529    0.0000 N   0  0  0  0  0  0  0  0  0  0  0  0
    5.2530    1.7375    0.0000 C   0  0  0  0  0  0  0  0  0  0  0  0
    4.7010    2.3506    0.0000 C   0  0  0  0  0  0  0  0  0  0  0  0
    4.9559    3.1352    0.0000 C   0  0  0  0  0  0  0  0  0  0  0  0
    5.7629    3.3067    0.0000 N   0  0  0  0  0  0  0  0  0  0  0  0
    6.3149    2.6937    0.0000 C   0  0  0  0  0  0  0  0  0  0  0  0
    6.0600    1.9090    0.0000 C   0  0  0  0  0  0  0  0  0  0  0  0
    6.0178    4.0914    0.0000 C   0  0  0  0  0  0  0  0  0  0  0  0
    6.8248    4.2629    0.0000 C   0  0  0  0  0  0  0  0  0  0  0  0
    7.0798    5.0475    0.0000 C   0  0  0  0  0  0  0  0  0  0  0  0
    7.8867    5.2190    0.0000 C   0  0  0  0  0  0  0  0  0  0  0  0
    8.4388    4.6059    0.0000 C   0  0  0  0  0  0  0  0  0  0  0  0
    8.1838    3.8213    0.0000 N   0  0  0  0  0  0  0  0  0  0  0  0
    7.3769    3.6498    0.0000 C   0  0  0  0  0  0  0  0  0  0  0  0
    2.0701    1.1104    0.0000 C   0  0  0  0  0  0  0  0  0  0  0  0
    1.3556    0.6979    0.0000 C   0  0  0  0  0  0  0  0  0  0  0  0
    0.6411    1.1104    0.0000 C   0  0  0  0  0  0  0  0  0  0  0  0
    0.6411    1.9354    0.0000 C   0  0  0  0  0  0  0  0  0  0  0  0
   -0.1435    2.1904    0.0000 N   0  0  0  0  0  0  0  0  0  0  0  0
   -0.6284    1.5229    0.0000 C   0  0  0  0  0  0  0  0  0  0  0  0
   -0.1435    0.8555    0.0000 C   0  0  0  0  0  0  0  0  0  0  0  0
    1.3556    2.3479    0.0000 C   0  0  0  0  0  0  0  0  0  0  0  0
    2.0701    1.9354    0.0000 C   0  0  0  0  0  0  0  0  0  0  0  0
  1  2  1  0
  2  3  1  0
  3  4  1  0
  4  5  1  0
  5  6  1  0
  1  6  1  0
  3  7  1  0
  7  8  2  0
  8  9  1  0
  9 10  2  0
 10 11  1  0
 11 12  2  0
  7 12  1  0
 12 13  1  0
 13 14  2  0
 14 15  1  0
 11 15  1  0
 15 16  1  0
 16 17  1  0
 17 18  1  0
 18 19  1  0
 19 20  1  0
 20 21  1  0
 16 21  1  0
 19 22  1  0
 22 23  1  0
 23 24  2  0
 24 25  1  0
 25 26  2  0
 26 27  1  0
 27 28  2  0
 23 28  1  0
  9 29  1  0
 29 30  2  0
 30 31  1  0
 31 32  2  0
 32 33  1  0
 33 34  1  0
 34 35  2  0
 31 35  1  0
 32 36  1  0
 36 37  2  0
 29 37  1  0
M  END
>  <IC50>  (52) 
1.99425947273

>  <NCGC_ID>  (52) 
NCGC00346634

>  <Name>  (52) 
WAY-600

>  <PRIMARY_MOA>  (52) 
mTOR inhibitor

>  <StandardizerResult>  (52) 
Tautomerize (ID: Tautomerize)
Mesomerize (ID: Mesomerize)

>  <pIC50>  (52) 
-0.299781663626

$$$$
NCGC00346654
     RDKit          2D

 23 26  0  0  0  0  0  0  0  0999 V2000
    0.7947   -4.0044    0.0000 C   0  0  0  0  0  0  0  0  0  0  0  0
    0.2427   -3.3913    0.0000 C   0  0  0  0  0  0  0  0  0  0  0  0
   -0.5643   -3.5629    0.0000 C   0  0  0  0  0  0  0  0  0  0  0  0
    0.4976   -2.6067    0.0000 N   0  0  0  0  0  0  0  0  0  0  0  0
    0.0127   -1.9393    0.0000 N   0  0  0  0  0  0  0  0  0  0  0  0
    0.4976   -1.2718    0.0000 C   0  0  0  0  0  0  0  0  0  0  0  0
    0.2427   -0.4872    0.0000 C   0  0  0  0  0  0  0  0  0  0  0  0
   -0.5643   -0.3157    0.0000 C   0  0  0  0  0  0  0  0  0  0  0  0
   -0.8192    0.4689    0.0000 C   0  0  0  0  0  0  0  0  0  0  0  0
   -0.2672    1.0820    0.0000 C   0  0  0  0  0  0  0  0  0  0  0  0
   -0.6797    1.7965    0.0000 O   0  0  0  0  0  0  0  0  0  0  0  0
   -1.4867    1.6250    0.0000 C   0  0  0  0  0  0  0  0  0  0  0  0
   -1.5729    0.8045    0.0000 N   0  0  0  0  0  0  0  0  0  0  0  0
   -2.0998    2.1770    0.0000 N   0  0  0  0  0  0  0  0  0  0  0  0
    0.5398    0.9105    0.0000 C   0  0  0  0  0  0  0  0  0  0  0  0
    0.7947    0.1259    0.0000 C   0  0  0  0  0  0  0  0  0  0  0  0
    1.2822   -1.5268    0.0000 C   0  0  0  0  0  0  0  0  0  0  0  0
    1.9967   -1.1143    0.0000 C   0  0  0  0  0  0  0  0  0  0  0  0
    1.9967   -0.2893    0.0000 N   0  0  0  0  0  0  0  0  0  0  0  0
    2.7112   -1.5268    0.0000 N   0  0  0  0  0  0  0  0  0  0  0  0
    2.7112   -2.3518    0.0000 C   0  0  0  0  0  0  0  0  0  0  0  0
    1.9967   -2.7643    0.0000 N   0  0  0  0  0  0  0  0  0  0  0  0
    1.2822   -2.3518    0.0000 C   0  0  0  0  0  0  0  0  0  0  0  0
  1  2  1  0
  2  3  1  0
  2  4  1  0
  4  5  1  0
  5  6  2  0
  6  7  1  0
  7  8  2  0
  8  9  1  0
  9 10  2  0
 10 11  1  0
 11 12  1  0
 12 13  2  0
  9 13  1  0
 12 14  1  0
 10 15  1  0
 15 16  2  0
  7 16  1  0
  6 17  1  0
 17 18  2  0
 18 19  1  0
 18 20  1  0
 20 21  2  0
 21 22  1  0
 22 23  2  0
  4 23  1  0
 17 23  1  0
M  END
>  <IC50>  (53) 
0.0536262592593

>  <NCGC_ID>  (53) 
NCGC00346654

>  <Name>  (53) 
INK-128

>  <PRIMARY_MOA>  (53) 
mTORC1/2 inhibitor

>  <StandardizerResult>  (53) 
Tautomerize (ID: Tautomerize)
Mesomerize (ID: Mesomerize)

>  <pIC50>  (53) 
1.27062249652

$$$$
NCGC00346681
     RDKit          2D

 39 44  0  0  0  0  0  0  0  0999 V2000
   -1.5687   -4.3054    0.0000 C   0  0  0  0  0  0  0  0  0  0  0  0
   -0.7441   -4.3312    0.0000 O   0  0  0  0  0  0  0  0  0  0  0  0
   -0.3095   -3.6300    0.0000 C   0  0  0  0  0  0  0  0  0  0  0  0
    0.5151   -3.6557    0.0000 C   0  0  0  0  0  0  0  0  0  0  0  0
    0.9497   -2.9545    0.0000 C   0  0  0  0  0  0  0  0  0  0  0  0
    0.5597   -2.2275    0.0000 C   0  0  0  0  0  0  0  0  0  0  0  0
   -0.2649   -2.2017    0.0000 C   0  0  0  0  0  0  0  0  0  0  0  0
   -0.6995   -2.9030    0.0000 N   0  0  0  0  0  0  0  0  0  0  0  0
    0.9943   -1.5262    0.0000 C   0  0  0  0  0  0  0  0  0  0  0  0
    0.6043   -0.7992    0.0000 C   0  0  0  0  0  0  0  0  0  0  0  0
    1.0390   -0.0980    0.0000 C   0  0  0  0  0  0  0  0  0  0  0  0
    1.8636   -0.1238    0.0000 C   0  0  0  0  0  0  0  0  0  0  0  0
    2.2982    0.5775    0.0000 N   0  0  0  0  0  0  0  0  0  0  0  0
    3.1228    0.5517    0.0000 C   0  0  0  0  0  0  0  0  0  0  0  0
    3.5127   -0.1753    0.0000 C   0  0  0  0  0  0  0  0  0  0  0  0
    3.0781   -0.8765    0.0000 C   0  0  0  0  0  0  0  0  0  0  0  0
    3.6108   -1.5066    0.0000 N   0  0  0  0  0  0  0  0  0  0  0  0
    4.3745   -1.1947    0.0000 C   0  0  0  0  0  0  0  0  0  0  0  0
    5.0758   -1.6293    0.0000 O   0  0  0  0  0  0  0  0  0  0  0  0
    4.3140   -0.3719    0.0000 N   0  0  0  0  0  0  0  0  0  0  0  0
    4.9440    0.1607    0.0000 C   0  0  0  0  0  0  0  0  0  0  0  0
    3.4141   -2.3078    0.0000 C   0  0  0  0  0  0  0  0  0  0  0  0
    2.6219   -2.5381    0.0000 C   0  0  0  0  0  0  0  0  0  0  0  0
    2.4253   -3.3393    0.0000 C   0  0  0  0  0  0  0  0  0  0  0  0
    3.0208   -3.9102    0.0000 C   0  0  0  0  0  0  0  0  0  0  0  0
    2.8242   -4.7114    0.0000 N   0  0  0  0  0  0  0  0  0  0  0  0
    3.4197   -5.2824    0.0000 C   0  0  0  0  0  0  0  0  0  0  0  0
    3.2231   -6.0836    0.0000 C   0  0  0  0  0  0  0  0  0  0  0  0
    2.4309   -6.3139    0.0000 N   0  0  0  0  0  0  0  0  0  0  0  0
    1.8353   -5.7430    0.0000 C   0  0  0  0  0  0  0  0  0  0  0  0
    2.0320   -4.9418    0.0000 C   0  0  0  0  0  0  0  0  0  0  0  0
    3.8130   -3.6799    0.0000 C   0  0  0  0  0  0  0  0  0  0  0  0
    4.0097   -2.8787    0.0000 C   0  0  0  0  0  0  0  0  0  0  0  0
    4.4086   -4.2508    0.0000 C   0  0  0  0  0  0  0  0  0  0  0  0
    5.0041   -4.8217    0.0000 F   0  0  0  0  0  0  0  0  0  0  0  0
    4.9795   -3.6553    0.0000 F   0  0  0  0  0  0  0  0  0  0  0  0
    3.8377   -4.8464    0.0000 F   0  0  0  0  0  0  0  0  0  0  0  0
    2.2535   -0.8508    0.0000 C   0  0  0  0  0  0  0  0  0  0  0  0
    1.8189   -1.5520    0.0000 C   0  0  0  0  0  0  0  0  0  0  0  0
  1  2  1  0
  2  3  1  0
  3  4  2  0
  4  5  1  0
  5  6  2  0
  6  7  1  0
  7  8  2  0
  3  8  1  0
  6  9  1  0
  9 10  2  0
 10 11  1  0
 11 12  2  0
 12 13  1  0
 13 14  2  0
 14 15  1  0
 15 16  2  0
 16 17  1  0
 17 18  1  0
 18 19  2  0
 18 20  1  0
 15 20  1  0
 20 21  1  0
 17 22  1  0
 22 23  2  0
 23 24  1  0
 24 25  2  0
 25 26  1  0
 26 27  1  0
 27 28  1  0
 28 29  1  0
 29 30  1  0
 30 31  1  0
 26 31  1  0
 25 32  1  0
 32 33  2  0
 22 33  1  0
 32 34  1  0
 34 35  1  0
 34 36  1  0
 34 37  1  0
 16 38  1  0
 12 38  1  0
 38 39  2  0
  9 39  1  0
M  END
>  <IC50>  (54) 
0.00152325454545

>  <NCGC_ID>  (54) 
NCGC00346681

>  <Name>  (54) 
NVP-BGT226

>  <PRIMARY_MOA>  (54) 
PI3K Inhibitor

>  <StandardizerResult>  (54) 
Tautomerize (ID: Tautomerize)
Mesomerize (ID: Mesomerize)

>  <pIC50>  (54) 
2.81722751725

$$$$
NCGC00346692
     RDKit          2D

 36 40  0  0  0  0  0  0  0  0999 V2000
    5.6424   -0.1271    0.0000 C   0  0  0  0  0  0  0  0  0  0  0  0
    4.9279   -0.5396    0.0000 O   0  0  0  0  0  0  0  0  0  0  0  0
    4.2135   -0.1271    0.0000 C   0  0  0  0  0  0  0  0  0  0  0  0
    3.4990   -0.5396    0.0000 C   0  0  0  0  0  0  0  0  0  0  0  0
    2.7845   -0.1271    0.0000 C   0  0  0  0  0  0  0  0  0  0  0  0
    2.7845    0.6979    0.0000 C   0  0  0  0  0  0  0  0  0  0  0  0
    3.4990    1.1104    0.0000 C   0  0  0  0  0  0  0  0  0  0  0  0
    4.2135    0.6979    0.0000 N   0  0  0  0  0  0  0  0  0  0  0  0
    2.0701    1.1104    0.0000 C   0  0  0  0  0  0  0  0  0  0  0  0
    1.3556    0.6979    0.0000 N   0  0  0  0  0  0  0  0  0  0  0  0
    0.6411    1.1104    0.0000 C   0  0  0  0  0  0  0  0  0  0  0  0
    0.6411    1.9354    0.0000 C   0  0  0  0  0  0  0  0  0  0  0  0
   -0.1435    2.1904    0.0000 S   0  0  0  0  0  0  0  0  0  0  0  0
   -0.6284    1.5229    0.0000 C   0  0  0  0  0  0  0  0  0  0  0  0
   -0.1435    0.8555    0.0000 C   0  0  0  0  0  0  0  0  0  0  0  0
   -1.4534    1.5229    0.0000 C   0  0  0  0  0  0  0  0  0  0  0  0
   -1.8659    0.8085    0.0000 N   0  0  0  0  0  0  0  0  0  0  0  0
   -1.4534    0.0940    0.0000 C   0  0  0  0  0  0  0  0  0  0  0  0
   -2.6909    0.8085    0.0000 C   0  0  0  0  0  0  0  0  0  0  0  0
   -3.1034    0.0940    0.0000 N   0  0  0  0  0  0  0  0  0  0  0  0
   -3.9284    0.0940    0.0000 C   0  0  0  0  0  0  0  0  0  0  0  0
   -4.3409    0.8085    0.0000 C   0  0  0  0  0  0  0  0  0  0  0  0
   -3.9284    1.5229    0.0000 C   0  0  0  0  0  0  0  0  0  0  0  0
   -3.1034    1.5229    0.0000 N   0  0  0  0  0  0  0  0  0  0  0  0
   -5.1659    0.8085    0.0000 C   0  0  0  0  0  0  0  0  0  0  0  0
   -5.5784    0.0940    0.0000 O   0  0  0  0  0  0  0  0  0  0  0  0
   -5.5784    1.5229    0.0000 N   0  0  0  0  0  0  0  0  0  0  0  0
   -6.4034    1.5229    0.0000 O   0  0  0  0  0  0  0  0  0  0  0  0
    1.3556    2.3479    0.0000 C   0  0  0  0  0  0  0  0  0  0  0  0
    2.0701    1.9354    0.0000 N   0  0  0  0  0  0  0  0  0  0  0  0
    1.3556    3.1729    0.0000 N   0  0  0  0  0  0  0  0  0  0  0  0
    0.6411    3.5854    0.0000 C   0  0  0  0  0  0  0  0  0  0  0  0
    0.6411    4.4104    0.0000 C   0  0  0  0  0  0  0  0  0  0  0  0
    1.3556    4.8229    0.0000 O   0  0  0  0  0  0  0  0  0  0  0  0
    2.0701    4.4104    0.0000 C   0  0  0  0  0  0  0  0  0  0  0  0
    2.0701    3.5854    0.0000 C   0  0  0  0  0  0  0  0  0  0  0  0
  1  2  1  0
  2  3  1  0
  3  4  2  0
  4  5  1  0
  5  6  2  0
  6  7  1  0
  7  8  2  0
  3  8  1  0
  6  9  1  0
  9 10  2  0
 10 11  1  0
 11 12  2  0
 12 13  1  0
 13 14  1  0
 14 15  2  0
 11 15  1  0
 14 16  1  0
 16 17  1  0
 17 18  1  0
 17 19  1  0
 19 20  2  0
 20 21  1  0
 21 22  2  0
 22 23  1  0
 23 24  2  0
 19 24  1  0
 22 25  1  0
 25 26  2  0
 25 27  1  0
 27 28  1  0
 12 29  1  0
 29 30  2  0
  9 30  1  0
 29 31  1  0
 31 32  1  0
 32 33  1  0
 33 34  1  0
 34 35  1  0
 35 36  1  0
 31 36  1  0
M  END
>  <IC50>  (55) 
0.0122369090909

>  <NCGC_ID>  (55) 
NCGC00346692

>  <Name>  (55) 
CUDC-907

>  <PRIMARY_MOA>  (55) 
PI3K Inhibitor

>  <StandardizerResult>  (55) 
Tautomerize (ID: Tautomerize)
Mesomerize (ID: Mesomerize)

>  <pIC50>  (55) 
1.91232826636

$$$$
NCGC00348199
     RDKit          2D

 33 35  0  0  0  0  0  0  0  0999 V2000
   -4.2868   -1.6500    0.0000 C   0  0  0  0  0  0  0  0  0  0  0  0
   -3.5724   -1.2375    0.0000 O   0  0  0  0  0  0  0  0  0  0  0  0
   -2.8579   -1.6500    0.0000 C   0  0  0  0  0  0  0  0  0  0  0  0
   -2.1434   -1.2375    0.0000 N   0  0  0  0  0  0  0  0  0  0  0  0
   -1.4289   -1.6500    0.0000 C   0  0  0  0  0  0  0  0  0  0  0  0
   -0.7145   -1.2375    0.0000 C   0  0  0  0  0  0  0  0  0  0  0  0
   -0.7145   -0.4125    0.0000 N   0  0  0  0  0  0  0  0  0  0  0  0
    0.0000    0.0000    0.0000 C   0  0  0  0  0  0  0  0  0  0  0  0
    0.7145   -0.4125    0.0000 C   0  0  0  0  0  0  0  0  0  0  0  0
    1.4289    0.0000    0.0000 C   0  0  0  0  0  0  0  0  0  0  0  0
    2.1434   -0.4125    0.0000 C   0  0  0  0  0  0  0  0  0  0  0  0
    2.8579   -0.0000    0.0000 C   0  0  0  0  0  0  0  0  0  0  0  0
    2.1434   -1.2375    0.0000 N   0  0  0  0  0  0  0  0  0  0  0  0
    0.0000   -1.6500    0.0000 C   0  0  0  0  0  0  0  0  0  0  0  0
    0.0000   -2.4750    0.0000 C   0  0  0  0  0  0  0  0  0  0  0  0
    0.7145   -2.8875    0.0000 O   0  0  0  0  0  0  0  0  0  0  0  0
    1.4289   -2.4750    0.0000 C   0  0  0  0  0  0  0  0  0  0  0  0
   -0.7145   -2.8875    0.0000 C   0  0  0  0  0  0  0  0  0  0  0  0
   -1.4289   -2.4750    0.0000 C   0  0  0  0  0  0  0  0  0  0  0  0
   -2.1434   -2.8875    0.0000 C   0  0  0  0  0  0  0  0  0  0  0  0
   -2.8579   -2.4750    0.0000 C   0  0  0  0  0  0  0  0  0  0  0  0
   -2.1434   -3.7125    0.0000 C   0  0  0  0  0  0  0  0  0  0  0  0
   -0.7145   -3.7125    0.0000 O   0  0  0  0  0  0  0  0  0  0  0  0
    0.0000   -4.1250    0.0000 C   0  0  0  0  0  0  0  0  0  0  0  0
    0.7145   -3.7125    0.0000 C   0  0  0  0  0  0  0  0  0  0  0  0
    1.4289   -4.1250    0.0000 C   0  0  0  0  0  0  0  0  0  0  0  0
    1.4289   -4.9500    0.0000 C   0  0  0  0  0  0  0  0  0  0  0  0
    0.7145   -5.3625    0.0000 C   0  0  0  0  0  0  0  0  0  0  0  0
    0.0000   -4.9500    0.0000 C   0  0  0  0  0  0  0  0  0  0  0  0
    0.7145   -6.1875    0.0000 C   0  0  0  0  0  0  0  0  0  0  0  0
    0.7145   -7.0125    0.0000 F   0  0  0  0  0  0  0  0  0  0  0  0
   -0.1105   -6.1875    0.0000 F   0  0  0  0  0  0  0  0  0  0  0  0
    1.5395   -6.1875    0.0000 F   0  0  0  0  0  0  0  0  0  0  0  0
  1  2  1  0
  2  3  1  0
  3  4  2  0
  4  5  1  0
  5  6  2  0
  6  7  1  0
  7  8  1  0
  8  9  1  0
  9 10  1  0
 10 11  1  0
 11 12  1  0
 11 13  1  0
  6 14  1  0
 14 15  2  0
 15 16  1  0
 16 17  1  0
 15 18  1  0
 18 19  2  0
  5 19  1  0
 19 20  1  0
 20 21  2  0
  3 21  1  0
 20 22  1  0
 18 23  1  0
 23 24  1  0
 24 25  2  0
 25 26  1  0
 26 27  2  0
 27 28  1  0
 28 29  2  0
 24 29  1  0
 28 30  1  0
 30 31  1  0
 30 32  1  0
 30 33  1  0
M  END
>  <IC50>  (56) 
0.0970813272727

>  <Name>  (56) 
Tafenoquine

>  <PRIMARY_MOA>  (56) 
antimalarial

>  <pIC50>  (56) 
1.01286429473

$$$$
